L8I_1_3M2W
  PyMOL2.6          3D                             0

 49 54  0  0  0  0  0  0  0  0999 V2000
   36.3460    4.5230   22.9320 C   0  0  0  0  0  0  0  0  0  0  0  0
   37.9170    6.0220   18.1170 N   0  0  0  0  0  0  0  0  0  0  0  0
   41.0140    8.7550   19.9850 O   0  0  0  0  0  0  0  0  0  0  0  0
   35.1280    4.5510   11.0110 C   0  0  0  0  0  0  0  0  0  0  0  0
   38.5820    5.6040   13.0200 N   0  0  0  0  0  0  0  0  0  0  0  0
   34.2310    3.6720   11.6260 C   0  0  0  0  0  0  0  0  0  0  0  0
   39.4130    8.0790   21.3760 N   0  0  0  0  0  0  0  0  0  0  0  0
   36.2080    5.0540   11.7280 C   0  0  0  0  0  0  0  0  0  0  0  0
   36.5710    4.6780   21.4640 N   0  3  0  0  0  0  0  0  0  0  0  0
   34.3920    3.3180   12.9550 C   0  0  0  0  0  0  0  0  0  0  0  0
   37.4800    5.5440   15.1400 C   0  0  0  0  0  0  0  0  0  0  0  0
   39.6670    6.1750   13.5520 C   0  0  0  0  0  0  0  0  0  0  0  0
   40.9670    7.0940   15.5330 C   0  0  0  0  0  0  0  0  0  0  0  0
   40.6590    7.9360   16.8000 C   0  0  0  0  0  0  0  0  0  0  0  0
   37.9850    4.8390   21.0540 C   0  0  0  0  0  0  0  0  0  0  0  0
   36.2040    5.9810   20.8300 C   0  0  0  0  0  0  0  0  0  0  0  0
   38.1820    7.3490   21.6740 C   0  0  0  0  0  0  0  0  0  0  0  0
   36.3700    4.6900   13.0540 C   0  0  0  0  0  0  0  0  0  0  0  0
   35.4680    3.8250   13.6740 C   0  0  0  0  0  0  0  0  0  0  0  0
   38.6120    6.1180   15.7060 C   0  0  0  0  0  0  0  0  0  0  0  0
   37.5130    5.2770   13.7690 C   0  0  0  0  0  0  0  0  0  0  0  0
   39.7140    6.4530   14.9180 C   0  0  0  0  0  0  0  0  0  0  0  0
   39.6180    7.2520   17.6360 C   0  0  0  0  0  0  0  0  0  0  0  0
   39.3690    7.3240   19.0810 C   0  0  0  0  0  0  0  0  0  0  0  0
   38.6800    6.4310   17.1550 C   0  0  0  0  0  0  0  0  0  0  0  0
   38.2930    6.5310   19.2680 C   0  0  0  0  0  0  0  0  0  0  0  0
   40.0070    8.0830   20.1680 C   0  0  0  0  0  0  0  0  0  0  0  0
   37.7020    6.3020   20.6390 C   0  0  0  0  0  0  0  0  0  0  0  0
   35.6060    3.4560   14.9520 F   0  0  0  0  0  0  0  0  0  0  0  0
   35.2695    4.4111   23.1287 H   0  0  0  0  0  0  0  0  0  0  0  0
   36.8791    3.6308   23.2923 H   0  0  0  0  0  0  0  0  0  0  0  0
   36.7238    5.4129   23.4567 H   0  0  0  0  0  0  0  0  0  0  0  0
   34.9821    4.8389    9.9803 H   0  0  0  0  0  0  0  0  0  0  0  0
   33.4059    3.2659   11.0598 H   0  0  0  0  0  0  0  0  0  0  0  0
   36.9132    5.7217   11.2555 H   0  0  0  0  0  0  0  0  0  0  0  0
   33.6862    2.6524   13.4296 H   0  0  0  0  0  0  0  0  0  0  0  0
   36.6095    5.3135   15.7362 H   0  0  0  0  0  0  0  0  0  0  0  0
   40.5093    6.4217   12.9227 H   0  0  0  0  0  0  0  0  0  0  0  0
   41.4212    7.7556   14.7807 H   0  0  0  0  0  0  0  0  0  0  0  0
   41.6639    6.2904   15.8134 H   0  0  0  0  0  0  0  0  0  0  0  0
   41.5796    8.0516   17.3908 H   0  0  0  0  0  0  0  0  0  0  0  0
   40.2867    8.9254   16.4958 H   0  0  0  0  0  0  0  0  0  0  0  0
   38.3466    4.1655   20.2631 H   0  0  0  0  0  0  0  0  0  0  0  0
   38.7433    4.6885   21.8365 H   0  0  0  0  0  0  0  0  0  0  0  0
   35.6232    6.6834   21.4458 H   0  0  0  0  0  0  0  0  0  0  0  0
   35.5897    5.9310   19.9189 H   0  0  0  0  0  0  0  0  0  0  0  0
   37.6278    7.5331   22.5825 H   0  0  0  0  0  0  0  0  0  0  0  0
   37.1428    5.4001   17.9995 H   0  0  0  0  0  0  0  0  0  0  0  0
   36.0524    3.8641   21.2020 H   0  0  0  0  0  0  0  0  0  0  0  0
  1  9  1  0  0  0  0
  1 30  1  0  0  0  0
  1 31  1  0  0  0  0
  1 32  1  0  0  0  0
  2 48  1  0  0  0  0
  4  6  4  0  0  0  0
  4  8  4  0  0  0  0
  4 33  1  0  0  0  0
  6 10  4  0  0  0  0
  6 34  1  0  0  0  0
  8 18  4  0  0  0  0
  8 35  1  0  0  0  0
  9 49  1  0  0  0  0
 10 19  4  0  0  0  0
 10 36  1  0  0  0  0
 11 20  4  0  0  0  0
 11 21  4  0  0  0  0
 11 37  1  0  0  0  0
  5 12  4  0  0  0  0
 12 22  4  0  0  0  0
 12 38  1  0  0  0  0
 13 14  1  0  0  0  0
 13 22  1  0  0  0  0
 13 39  1  0  0  0  0
 13 40  1  0  0  0  0
 14 23  1  0  0  0  0
 14 41  1  0  0  0  0
 14 42  1  0  0  0  0
  9 15  1  0  0  0  0
 15 28  1  0  0  0  0
 15 43  1  0  0  0  0
 15 44  1  0  0  0  0
  9 16  1  0  0  0  0
 16 28  1  0  0  0  0
 16 45  1  0  0  0  0
 16 46  1  0  0  0  0
  7 17  2  0  0  0  0
 17 28  1  0  0  0  0
 17 47  1  0  0  0  0
 18 19  4  0  0  0  0
 18 21  1  0  0  0  0
 19 29  1  0  0  0  0
 20 22  4  0  0  0  0
 20 25  1  0  0  0  0
  5 21  4  0  0  0  0
 23 24  1  0  0  0  0
 23 25  2  0  0  0  0
 24 26  2  0  0  0  0
 24 27  1  0  0  0  0
  2 25  1  0  0  0  0
  2 26  1  0  0  0  0
 26 28  1  0  0  0  0
  3 27  2  0  0  0  0
  7 27  1  0  0  0  0
M  END
$$$$
