ZK1_263_3KGC
  PyMOL2.6          3D                             0

 40 42  0  0  0  0  0  0  0  0999 V2000
   10.4120   30.4730   -1.7570 P   0  0  0  0  0  0  0  0  0  0  0  0
    6.6740   34.7860   -1.2450 C   0  0  0  0  0  0  0  0  0  0  0  0
    7.7370   34.6560   -3.4210 N   0  0  0  0  0  0  0  0  0  0  0  0
   10.0950   30.6710   -0.1780 O   0  5  0  0  0  0  0  0  0  0  0  0
    7.3500   32.1330   -0.7670 C   0  0  0  0  0  0  0  0  0  0  0  0
    8.4080   31.9820   -2.9620 N   0  0  0  0  0  0  0  0  0  0  0  0
   10.8990   28.9740   -1.9370 O   0  5  0  0  0  0  0  0  0  0  0  0
    7.4710   31.7820    2.2510 C   0  0  0  0  0  0  0  0  0  0  0  0
    6.3570   32.1470    1.3680 N   0  0  0  0  0  0  0  0  0  0  0  0
    8.7130   34.4980   -5.4500 O   0  0  0  0  0  0  0  0  0  0  0  0
    4.9970   31.6050    1.5510 C   0  0  0  0  0  0  0  0  0  0  0  0
    9.3540   31.9580   -5.0410 O   0  0  0  0  0  0  0  0  0  0  0  0
    7.0110   31.4360    3.6730 C   0  0  0  0  0  0  0  0  0  0  0  0
   11.3540   31.4920   -2.2280 O   0  0  0  0  0  0  0  0  0  0  0  0
    4.7430   31.1350    2.9910 C   0  0  0  0  0  0  0  0  0  0  0  0
    5.9190   30.5020    3.5360 O   0  0  0  0  0  0  0  0  0  0  0  0
    8.7990   30.5650   -2.7050 C   0  0  0  0  0  0  0  0  0  0  0  0
    6.3110   34.1920   -0.0270 C   0  0  0  0  0  0  0  0  0  0  0  0
    7.3690   34.0550   -2.2110 C   0  0  0  0  0  0  0  0  0  0  0  0
    7.7000   32.7250   -1.9830 C   0  0  0  0  0  0  0  0  0  0  0  0
    6.6600   32.8520    0.2000 C   0  0  0  0  0  0  0  0  0  0  0  0
    8.4210   33.9440   -4.3910 C   0  0  0  0  0  0  0  0  0  0  0  0
    8.7650   32.6040   -4.1710 C   0  0  0  0  0  0  0  0  0  0  0  0
    5.5900   35.0360    1.0310 C   0  0  0  0  0  0  0  0  0  0  0  0
    6.4240   35.2010    2.0650 F   0  0  0  0  0  0  0  0  0  0  0  0
    5.3180   36.2190    0.4970 F   0  0  0  0  0  0  0  0  0  0  0  0
    4.4930   34.4630    1.4630 F   0  0  0  0  0  0  0  0  0  0  0  0
    6.4140   35.8165   -1.4371 H   0  0  0  0  0  0  0  0  0  0  0  0
    7.6191   31.1045   -0.5769 H   0  0  0  0  0  0  0  0  0  0  0  0
    8.1630   32.6352    2.3078 H   0  0  0  0  0  0  0  0  0  0  0  0
    7.9772   30.9026    1.8261 H   0  0  0  0  0  0  0  0  0  0  0  0
    4.8697   30.7460    0.8758 H   0  0  0  0  0  0  0  0  0  0  0  0
    4.2708   32.3948    1.3083 H   0  0  0  0  0  0  0  0  0  0  0  0
    7.8349   30.9832    4.2441 H   0  0  0  0  0  0  0  0  0  0  0  0
    6.6781   32.3420    4.2005 H   0  0  0  0  0  0  0  0  0  0  0  0
    4.4827   32.0048    3.6121 H   0  0  0  0  0  0  0  0  0  0  0  0
    3.9132   30.4129    2.9921 H   0  0  0  0  0  0  0  0  0  0  0  0
    8.0092   30.0782   -2.1140 H   0  0  0  0  0  0  0  0  0  0  0  0
    8.9209   30.0479   -3.6682 H   0  0  0  0  0  0  0  0  0  0  0  0
    7.5021   35.6138   -3.5868 H   0  0  0  0  0  0  0  0  0  0  0  0
  2 18  4  0  0  0  0
  2 19  4  0  0  0  0
  2 28  1  0  0  0  0
  3 40  1  0  0  0  0
  1  4  1  0  0  0  0
  5 20  4  0  0  0  0
  5 21  4  0  0  0  0
  5 29  1  0  0  0  0
  1  7  1  0  0  0  0
  8  9  1  0  0  0  0
  8 13  1  0  0  0  0
  8 30  1  0  0  0  0
  8 31  1  0  0  0  0
  9 11  1  0  0  0  0
 11 15  1  0  0  0  0
 11 32  1  0  0  0  0
 11 33  1  0  0  0  0
 13 16  1  0  0  0  0
 13 34  1  0  0  0  0
 13 35  1  0  0  0  0
  1 14  2  0  0  0  0
 15 16  1  0  0  0  0
 15 36  1  0  0  0  0
 15 37  1  0  0  0  0
  1 17  1  0  0  0  0
  6 17  1  0  0  0  0
 17 38  1  0  0  0  0
 17 39  1  0  0  0  0
 18 21  4  0  0  0  0
 18 24  1  0  0  0  0
  3 19  1  0  0  0  0
 19 20  4  0  0  0  0
  6 20  1  0  0  0  0
  9 21  1  0  0  0  0
  3 22  1  0  0  0  0
 10 22  2  0  0  0  0
 22 23  1  0  0  0  0
  6 23  1  0  0  0  0
 12 23  2  0  0  0  0
 24 25  1  0  0  0  0
 24 26  1  0  0  0  0
 24 27  1  0  0  0  0
M  END
$$$$
