CEL_682_3LN1
  PyMOL2.6          3D                             0

 40 42  0  0  0  0  0  0  0  0999 V2000
   32.0560  -25.2900  -11.3060 C   0  0  0  0  0  0  0  0  0  0  0  0
   25.3780  -22.2260  -18.6050 N   0  0  0  0  0  0  0  0  0  0  0  0
   25.4360  -22.1060  -15.9490 O   0  0  0  0  0  0  0  0  0  0  0  0
   25.9310  -21.4670  -17.1550 S   0  0  0  0  0  0  0  0  0  0  0  0
   33.0230  -25.0300  -13.5490 C   0  0  0  0  0  0  0  0  0  0  0  0
   32.2900  -21.4240  -18.2010 N   0  0  0  0  0  0  0  0  0  0  0  0
   25.7720  -20.0390  -17.2910 O   0  0  0  0  0  0  0  0  0  0  0  0
   31.4460  -23.3900  -12.8190 C   0  0  0  0  0  0  0  0  0  0  0  0
   31.7240  -22.0060  -17.1320 N   0  0  0  0  0  0  0  0  0  0  0  0
   33.1520  -24.3730  -14.7430 C   0  0  0  0  0  0  0  0  0  0  0  0
   31.5700  -22.7350  -14.0160 C   0  0  0  0  0  0  0  0  0  0  0  0
   29.5840  -22.9640  -16.5430 C   0  0  0  0  0  0  0  0  0  0  0  0
   29.7960  -20.8530  -17.6970 C   0  0  0  0  0  0  0  0  0  0  0  0
   28.2180  -22.8290  -16.5560 C   0  0  0  0  0  0  0  0  0  0  0  0
   28.4340  -20.7140  -17.7070 C   0  0  0  0  0  0  0  0  0  0  0  0
   33.8430  -22.3370  -16.8370 C   0  0  0  0  0  0  0  0  0  0  0  0
   32.1700  -24.5410  -12.5870 C   0  0  0  0  0  0  0  0  0  0  0  0
   32.4170  -23.2370  -14.9850 C   0  0  0  0  0  0  0  0  0  0  0  0
   30.3410  -21.9670  -17.1090 C   0  0  0  0  0  0  0  0  0  0  0  0
   27.6790  -21.7060  -17.1310 C   0  0  0  0  0  0  0  0  0  0  0  0
   32.6220  -22.5740  -16.2600 C   0  0  0  0  0  0  0  0  0  0  0  0
   33.5890  -21.6370  -18.0310 C   0  0  0  0  0  0  0  0  0  0  0  0
   34.5540  -21.1350  -19.0020 C   0  0  0  0  0  0  0  0  0  0  0  0
   35.8160  -21.2140  -18.5440 F   0  0  0  0  0  0  0  0  0  0  0  0
   34.3020  -19.8280  -19.2230 F   0  0  0  0  0  0  0  0  0  0  0  0
   34.5600  -21.7520  -20.2100 F   0  0  0  0  0  0  0  0  0  0  0  0
   32.8003  -24.9098  -10.5908 H   0  0  0  0  0  0  0  0  0  0  0  0
   31.0464  -25.1546  -10.8909 H   0  0  0  0  0  0  0  0  0  0  0  0
   32.2369  -26.3594  -11.4894 H   0  0  0  0  0  0  0  0  0  0  0  0
   33.5897  -25.9303  -13.3627 H   0  0  0  0  0  0  0  0  0  0  0  0
   30.7825  -23.0058  -12.0584 H   0  0  0  0  0  0  0  0  0  0  0  0
   33.8312  -24.7472  -15.4947 H   0  0  0  0  0  0  0  0  0  0  0  0
   31.0086  -21.8311  -14.2010 H   0  0  0  0  0  0  0  0  0  0  0  0
   30.0512  -23.8309  -16.0996 H   0  0  0  0  0  0  0  0  0  0  0  0
   30.4293  -20.1006  -18.1432 H   0  0  0  0  0  0  0  0  0  0  0  0
   27.5830  -23.5884  -16.1241 H   0  0  0  0  0  0  0  0  0  0  0  0
   27.9669  -19.8493  -18.1549 H   0  0  0  0  0  0  0  0  0  0  0  0
   34.8085  -22.6296  -16.4515 H   0  0  0  0  0  0  0  0  0  0  0  0
   24.3858  -22.1244  -18.6775 H   0  0  0  0  0  0  0  0  0  0  0  0
   25.8156  -21.7953  -19.3943 H   0  0  0  0  0  0  0  0  0  0  0  0
  1 17  1  0  0  0  0
  1 27  1  0  0  0  0
  1 28  1  0  0  0  0
  1 29  1  0  0  0  0
  2  4  1  0  0  0  0
  2 39  1  0  0  0  0
  2 40  1  0  0  0  0
  3  4  2  0  0  0  0
  5 10  4  0  0  0  0
  5 17  4  0  0  0  0
  5 30  1  0  0  0  0
  6  9  1  0  0  0  0
  4  7  2  0  0  0  0
  8 11  4  0  0  0  0
  8 17  4  0  0  0  0
  8 31  1  0  0  0  0
 10 18  4  0  0  0  0
 10 32  1  0  0  0  0
 11 18  4  0  0  0  0
 11 33  1  0  0  0  0
 12 14  4  0  0  0  0
 12 19  4  0  0  0  0
 12 34  1  0  0  0  0
 13 15  4  0  0  0  0
 13 19  4  0  0  0  0
 13 35  1  0  0  0  0
 14 20  4  0  0  0  0
 14 36  1  0  0  0  0
 15 20  4  0  0  0  0
 15 37  1  0  0  0  0
 16 21  2  0  0  0  0
 16 22  1  0  0  0  0
 16 38  1  0  0  0  0
 18 21  1  0  0  0  0
  9 19  1  0  0  0  0
  4 20  1  0  0  0  0
  9 21  1  0  0  0  0
  6 22  2  0  0  0  0
 22 23  1  0  0  0  0
 23 24  1  0  0  0  0
 23 25  1  0  0  0  0
 23 26  1  0  0  0  0
M  END
$$$$
