A7T_342_3G6Z
  PyMOL2.6          3D                             0

 84 89  0  0  0  0  0  0  0  0999 V2000
   -3.3500  -10.7130   -7.3940 C   0  0  0  0  0  0  0  0  0  0  0  0
   -4.5860  -20.2900  -11.8880 N   0  3  0  0  0  0  0  0  0  0  0  0
   -4.6560  -16.7670   -9.8910 O   0  0  0  0  0  0  0  0  0  0  0  0
  -10.6180   -8.8480   -6.3400 C   0  0  0  0  0  0  0  0  0  0  0  0
   -5.6170  -18.6720  -13.8000 N   0  3  0  0  0  0  0  0  0  0  0  0
  -11.1970  -16.7980   -7.9080 O   0  0  0  0  0  0  0  0  0  0  0  0
   -5.5460  -12.5660   -7.3910 C   0  0  0  0  0  0  0  0  0  0  0  0
   -6.2480  -15.3740  -10.5730 N   0  0  0  0  0  0  0  0  0  0  0  0
  -12.4710  -13.8180   -8.4510 O   0  0  0  0  0  0  0  0  0  0  0  0
   -2.7960  -12.5950  -10.6750 C   0  0  0  0  0  0  0  0  0  0  0  0
   -2.6240  -11.7060   -9.6130 C   0  0  0  0  0  0  0  0  0  0  0  0
   -3.8650  -13.4990  -10.6790 C   0  0  0  0  0  0  0  0  0  0  0  0
   -9.4900  -17.6670  -11.0130 C   0  0  0  0  0  0  0  0  0  0  0  0
   -7.8940  -17.6970   -9.1990 C   0  0  0  0  0  0  0  0  0  0  0  0
  -10.4970  -17.3120  -10.1300 C   0  0  0  0  0  0  0  0  0  0  0  0
   -8.9080  -17.3370   -8.3070 C   0  0  0  0  0  0  0  0  0  0  0  0
  -12.4380  -10.4440   -6.8730 C   0  0  0  0  0  0  0  0  0  0  0  0
  -10.1670  -11.0750   -7.4380 C   0  0  0  0  0  0  0  0  0  0  0  0
   -6.9970  -13.7070  -12.1650 C   0  0  0  0  0  0  0  0  0  0  0  0
   -7.1820  -15.0560  -12.8490 C   0  0  0  0  0  0  0  0  0  0  0  0
   -7.5300  -19.3980  -12.5040 C   0  0  0  0  0  0  0  0  0  0  0  0
   -5.5460  -20.8770  -12.8170 C   0  0  0  0  0  0  0  0  0  0  0  0
   -3.9340  -18.9970  -12.1030 C   0  0  0  0  0  0  0  0  0  0  0  0
  -12.4270  -16.2250   -8.3530 C   0  0  0  0  0  0  0  0  0  0  0  0
  -12.6610  -14.9330   -7.5880 C   0  0  0  0  0  0  0  0  0  0  0  0
   -5.9410  -14.4040   -9.5210 C   0  0  0  0  0  0  0  0  0  0  0  0
   -3.5250  -11.6840   -8.5470 C   0  0  0  0  0  0  0  0  0  0  0  0
  -11.0840  -10.1680   -6.9030 C   0  0  0  0  0  0  0  0  0  0  0  0
   -4.5810  -12.5780   -8.5480 C   0  0  0  0  0  0  0  0  0  0  0  0
   -8.1940  -17.8670  -10.5630 C   0  0  0  0  0  0  0  0  0  0  0  0
  -10.2060  -17.1460   -8.7780 C   0  0  0  0  0  0  0  0  0  0  0  0
   -4.7480  -13.4890   -9.6020 C   0  0  0  0  0  0  0  0  0  0  0  0
  -12.9410  -11.6330   -7.3690 C   0  0  0  0  0  0  0  0  0  0  0  0
  -10.5680  -12.2990   -7.9700 C   0  0  0  0  0  0  0  0  0  0  0  0
  -12.0100  -12.6340   -7.9500 C   0  0  0  0  0  0  0  0  0  0  0  0
   -7.4260  -14.9300  -11.3520 C   0  0  0  0  0  0  0  0  0  0  0  0
   -6.4260  -19.8200  -13.4710 C   0  0  0  0  0  0  0  0  0  0  0  0
   -4.9410  -18.0100  -12.6900 C   0  0  0  0  0  0  0  0  0  0  0  0
   -7.1420  -18.2440  -11.5760 C   0  0  0  0  0  0  0  0  0  0  0  0
   -5.9460  -17.5960  -11.6450 C   0  0  0  0  0  0  0  0  0  0  0  0
   -5.5920  -16.5480  -10.6630 C   0  0  0  0  0  0  0  0  0  0  0  0
  -14.7140  -11.9170   -7.3080 Cl  0  0  0  0  0  0  0  0  0  0  0  0
   -9.3570  -13.4410   -8.6520 Cl  0  0  0  0  0  0  0  0  0  0  0  0
   -3.8903   -9.7804   -7.6141 H   0  0  0  0  0  0  0  0  0  0  0  0
   -3.7521  -11.1610   -6.4733 H   0  0  0  0  0  0  0  0  0  0  0  0
   -2.2806  -10.4938   -7.2585 H   0  0  0  0  0  0  0  0  0  0  0  0
  -10.3939   -8.9641   -5.2693 H   0  0  0  0  0  0  0  0  0  0  0  0
   -9.7113   -8.5227   -6.8711 H   0  0  0  0  0  0  0  0  0  0  0  0
  -11.4091   -8.0947   -6.4693 H   0  0  0  0  0  0  0  0  0  0  0  0
   -6.3710  -11.8716   -7.6081 H   0  0  0  0  0  0  0  0  0  0  0  0
   -5.9492  -13.5782   -7.2395 H   0  0  0  0  0  0  0  0  0  0  0  0
   -5.0223  -12.2397   -6.4804 H   0  0  0  0  0  0  0  0  0  0  0  0
   -2.0991  -12.5855  -11.5000 H   0  0  0  0  0  0  0  0  0  0  0  0
   -1.7840  -11.0272   -9.6159 H   0  0  0  0  0  0  0  0  0  0  0  0
   -4.0019  -14.1886  -11.4988 H   0  0  0  0  0  0  0  0  0  0  0  0
   -9.7168  -17.7891  -12.0618 H   0  0  0  0  0  0  0  0  0  0  0  0
   -6.8850  -17.8440   -8.8429 H   0  0  0  0  0  0  0  0  0  0  0  0
  -11.5048  -17.1644  -10.4890 H   0  0  0  0  0  0  0  0  0  0  0  0
   -8.6869  -17.2074   -7.2578 H   0  0  0  0  0  0  0  0  0  0  0  0
  -13.1170   -9.7163   -6.4537 H   0  0  0  0  0  0  0  0  0  0  0  0
   -9.1174  -10.8208   -7.4395 H   0  0  0  0  0  0  0  0  0  0  0  0
   -6.1143  -13.0563  -12.0789 H   0  0  0  0  0  0  0  0  0  0  0  0
   -7.4938  -12.7396  -12.3304 H   0  0  0  0  0  0  0  0  0  0  0  0
   -7.8562  -15.3615  -13.6627 H   0  0  0  0  0  0  0  0  0  0  0  0
   -6.4705  -15.6796  -13.4101 H   0  0  0  0  0  0  0  0  0  0  0  0
   -8.3976  -19.0772  -13.0993 H   0  0  0  0  0  0  0  0  0  0  0  0
   -7.7821  -20.2664  -11.8777 H   0  0  0  0  0  0  0  0  0  0  0  0
   -6.1893  -21.5762  -12.2627 H   0  0  0  0  0  0  0  0  0  0  0  0
   -4.9927  -21.4101  -13.6042 H   0  0  0  0  0  0  0  0  0  0  0  0
   -3.0934  -19.1220  -12.8014 H   0  0  0  0  0  0  0  0  0  0  0  0
   -3.5593  -18.6113  -11.1434 H   0  0  0  0  0  0  0  0  0  0  0  0
  -13.2542  -16.9251   -8.1640 H   0  0  0  0  0  0  0  0  0  0  0  0
  -12.3717  -16.0148   -9.4313 H   0  0  0  0  0  0  0  0  0  0  0  0
  -13.6899  -14.9213   -7.1992 H   0  0  0  0  0  0  0  0  0  0  0  0
  -11.9495  -14.8713   -6.7514 H   0  0  0  0  0  0  0  0  0  0  0  0
   -5.7936  -14.9985   -8.6073 H   0  0  0  0  0  0  0  0  0  0  0  0
   -6.8169  -13.7406   -9.4686 H   0  0  0  0  0  0  0  0  0  0  0  0
   -8.2568  -15.2100  -10.6876 H   0  0  0  0  0  0  0  0  0  0  0  0
   -6.8805  -20.2334  -14.3834 H   0  0  0  0  0  0  0  0  0  0  0  0
   -4.4240  -17.1033  -13.0374 H   0  0  0  0  0  0  0  0  0  0  0  0
   -5.0875  -20.1869  -11.0290 H   0  0  0  0  0  0  0  0  0  0  0  0
   -3.8378  -20.9515  -11.8373 H   0  0  0  0  0  0  0  0  0  0  0  0
   -4.9087  -18.9821  -14.4342 H   0  0  0  0  0  0  0  0  0  0  0  0
   -6.2212  -17.9965  -14.2227 H   0  0  0  0  0  0  0  0  0  0  0  0
  1 27  1  0  0  0  0
  1 44  1  0  0  0  0
  1 45  1  0  0  0  0
  1 46  1  0  0  0  0
  2 81  1  0  0  0  0
  2 82  1  0  0  0  0
  4 28  1  0  0  0  0
  4 47  1  0  0  0  0
  4 48  1  0  0  0  0
  4 49  1  0  0  0  0
  5 83  1  0  0  0  0
  5 84  1  0  0  0  0
  7 29  1  0  0  0  0
  7 50  1  0  0  0  0
  7 51  1  0  0  0  0
  7 52  1  0  0  0  0
 10 11  4  0  0  0  0
 10 12  4  0  0  0  0
 10 53  1  0  0  0  0
 11 27  4  0  0  0  0
 11 54  1  0  0  0  0
 12 32  4  0  0  0  0
 12 55  1  0  0  0  0
 13 15  4  0  0  0  0
 13 30  4  0  0  0  0
 13 56  1  0  0  0  0
 14 16  4  0  0  0  0
 14 30  4  0  0  0  0
 14 57  1  0  0  0  0
 15 31  4  0  0  0  0
 15 58  1  0  0  0  0
 16 31  4  0  0  0  0
 16 59  1  0  0  0  0
 17 28  4  0  0  0  0
 17 33  4  0  0  0  0
 17 60  1  0  0  0  0
 18 28  4  0  0  0  0
 18 34  4  0  0  0  0
 18 61  1  0  0  0  0
 19 20  1  0  0  0  0
 19 36  1  0  0  0  0
 19 62  1  0  0  0  0
 19 63  1  0  0  0  0
 20 36  1  0  0  0  0
 20 64  1  0  0  0  0
 20 65  1  0  0  0  0
 21 37  1  0  0  0  0
 21 39  1  0  0  0  0
 21 66  1  0  0  0  0
 21 67  1  0  0  0  0
  2 22  1  0  0  0  0
 22 37  1  0  0  0  0
 22 68  1  0  0  0  0
 22 69  1  0  0  0  0
  2 23  1  0  0  0  0
 23 38  1  0  0  0  0
 23 70  1  0  0  0  0
 23 71  1  0  0  0  0
  6 24  1  0  0  0  0
 24 25  1  0  0  0  0
 24 72  1  0  0  0  0
 24 73  1  0  0  0  0
  9 25  1  0  0  0  0
 25 74  1  0  0  0  0
 25 75  1  0  0  0  0
  8 26  1  0  0  0  0
 26 32  1  0  0  0  0
 26 76  1  0  0  0  0
 26 77  1  0  0  0  0
 27 29  4  0  0  0  0
 29 32  4  0  0  0  0
 30 39  1  0  0  0  0
  6 31  1  0  0  0  0
 33 35  4  0  0  0  0
 33 42  1  0  0  0  0
 34 35  4  0  0  0  0
 34 43  1  0  0  0  0
  9 35  1  0  0  0  0
  8 36  1  0  0  0  0
 36 78  1  0  0  0  0
  5 37  1  0  0  0  0
 37 79  1  0  0  0  0
  5 38  1  0  0  0  0
 38 40  1  0  0  0  0
 38 80  1  0  0  0  0
 39 40  2  0  0  0  0
 40 41  1  0  0  0  0
  3 41  2  0  0  0  0
  8 41  1  0  0  0  0
M  END
$$$$
