443_1_3KL6
  PyMOL2.6          3D                             0

 58 61  0  0  0  0  0  0  0  0999 V2000
    6.1080   -7.5760  -14.7230 C   0  0  0  0  0  0  0  0  0  0  0  0
   -1.4890  -11.2330   -7.2580 N   0  0  0  0  0  0  0  0  0  0  0  0
    2.4780   -9.0860  -14.1740 O   0  0  0  0  0  0  0  0  0  0  0  0
    3.4910   -9.2420  -17.2640 S   0  0  0  0  0  0  0  0  0  0  0  0
    4.7170   -4.3970  -16.0770 C   0  0  0  0  0  0  0  0  0  0  0  0
   -0.0590  -10.5200  -13.6180 N   0  0  0  0  0  0  0  0  0  0  0  0
   -1.9810  -12.4010   -9.0530 O   0  0  0  0  0  0  0  0  0  0  0  0
    5.3910   -8.4820  -15.4340 C   0  0  0  0  0  0  0  0  0  0  0  0
   -0.7190  -10.6220   -9.4150 N   0  0  0  0  0  0  0  0  0  0  0  0
   -0.5350   -9.3670  -15.4730 O   0  0  0  0  0  0  0  0  0  0  0  0
    5.4380   -3.4900  -15.3520 C   0  0  0  0  0  0  0  0  0  0  0  0
    4.0900  -10.5140  -16.9920 O   0  0  0  0  0  0  0  0  0  0  0  0
    4.2010   -6.7420  -16.6030 C   0  0  0  0  0  0  0  0  0  0  0  0
    3.3890   -8.7440  -18.5940 O   0  0  0  0  0  0  0  0  0  0  0  0
    6.6140   -5.2410  -14.2010 C   0  0  0  0  0  0  0  0  0  0  0  0
   -0.6430   -8.9470   -7.5730 C   0  0  0  0  0  0  0  0  0  0  0  0
   -1.5500  -10.0320  -11.7370 C   0  0  0  0  0  0  0  0  0  0  0  0
    0.8120  -10.7620  -11.3100 C   0  0  0  0  0  0  0  0  0  0  0  0
   -0.8380  -10.1060   -6.5880 C   0  0  0  0  0  0  0  0  0  0  0  0
    0.0020   -9.4580   -8.8660 C   0  0  0  0  0  0  0  0  0  0  0  0
   -1.4730  -10.5620  -13.1870 C   0  0  0  0  0  0  0  0  0  0  0  0
    0.9450  -11.1940  -12.7730 C   0  0  0  0  0  0  0  0  0  0  0  0
    1.8430   -9.1500  -16.5290 C   0  0  0  0  0  0  0  0  0  0  0  0
    4.9240   -5.7800  -15.8780 C   0  0  0  0  0  0  0  0  0  0  0  0
    5.8930   -6.2020  -14.9260 C   0  0  0  0  0  0  0  0  0  0  0  0
    4.4350   -8.0650  -16.3690 C   0  0  0  0  0  0  0  0  0  0  0  0
    6.3900   -3.9080  -14.3980 C   0  0  0  0  0  0  0  0  0  0  0  0
   -0.6470  -10.9160  -10.8590 C   0  0  0  0  0  0  0  0  0  0  0  0
   -1.4060  -11.4380   -8.5860 C   0  0  0  0  0  0  0  0  0  0  0  0
    1.7620   -9.8460  -15.1700 C   0  0  0  0  0  0  0  0  0  0  0  0
    0.3040   -9.9030  -14.7670 C   0  0  0  0  0  0  0  0  0  0  0  0
    7.2870   -2.7420  -13.4710 Cl  0  0  0  0  0  0  0  0  0  0  0  0
    6.8413   -7.9094  -14.0036 H   0  0  0  0  0  0  0  0  0  0  0  0
    3.9907   -4.0570  -16.8004 H   0  0  0  0  0  0  0  0  0  0  0  0
    5.5593   -9.5372  -15.2773 H   0  0  0  0  0  0  0  0  0  0  0  0
    5.2762   -2.4343  -15.5122 H   0  0  0  0  0  0  0  0  0  0  0  0
    3.4690   -6.4376  -17.3365 H   0  0  0  0  0  0  0  0  0  0  0  0
    7.3531   -5.5583  -13.4803 H   0  0  0  0  0  0  0  0  0  0  0  0
   -1.6209   -8.5010   -7.8069 H   0  0  0  0  0  0  0  0  0  0  0  0
    0.0102   -8.1888   -7.1166 H   0  0  0  0  0  0  0  0  0  0  0  0
   -1.2045   -8.9883  -11.6998 H   0  0  0  0  0  0  0  0  0  0  0  0
   -2.5876  -10.0784  -11.3748 H   0  0  0  0  0  0  0  0  0  0  0  0
    1.4579  -11.3931  -10.6818 H   0  0  0  0  0  0  0  0  0  0  0  0
    1.1170   -9.7099  -11.2098 H   0  0  0  0  0  0  0  0  0  0  0  0
    0.1428  -10.4276   -6.2078 H   0  0  0  0  0  0  0  0  0  0  0  0
   -1.4675   -9.7688   -5.7513 H   0  0  0  0  0  0  0  0  0  0  0  0
   -0.0140   -8.6494   -9.6116 H   0  0  0  0  0  0  0  0  0  0  0  0
    1.0387   -9.7553   -8.6495 H   0  0  0  0  0  0  0  0  0  0  0  0
   -1.8469  -11.5957  -13.2285 H   0  0  0  0  0  0  0  0  0  0  0  0
   -2.0855   -9.9324  -13.8492 H   0  0  0  0  0  0  0  0  0  0  0  0
    1.9502  -10.9301  -13.1334 H   0  0  0  0  0  0  0  0  0  0  0  0
    0.7953  -12.2818  -12.8392 H   0  0  0  0  0  0  0  0  0  0  0  0
    1.1309   -9.6371  -17.2114 H   0  0  0  0  0  0  0  0  0  0  0  0
    1.5827   -8.0900  -16.3922 H   0  0  0  0  0  0  0  0  0  0  0  0
   -1.0171  -11.9431  -10.9933 H   0  0  0  0  0  0  0  0  0  0  0  0
    2.2028  -10.8513  -15.2420 H   0  0  0  0  0  0  0  0  0  0  0  0
   -2.0177  -11.8778   -6.7060 H   0  0  0  0  0  0  0  0  0  0  0  0
    2.4201   -9.5285  -13.3353 H   0  0  0  0  0  0  0  0  0  0  0  0
  1  8  4  0  0  0  0
  1 25  4  0  0  0  0
  1 33  1  0  0  0  0
  2 57  1  0  0  0  0
  3 58  1  0  0  0  0
  5 11  4  0  0  0  0
  5 24  4  0  0  0  0
  5 34  1  0  0  0  0
  8 26  4  0  0  0  0
  8 35  1  0  0  0  0
 11 27  4  0  0  0  0
 11 36  1  0  0  0  0
  4 12  2  0  0  0  0
 13 24  4  0  0  0  0
 13 26  4  0  0  0  0
 13 37  1  0  0  0  0
  4 14  2  0  0  0  0
 15 25  4  0  0  0  0
 15 27  4  0  0  0  0
 15 38  1  0  0  0  0
 16 19  1  0  0  0  0
 16 20  1  0  0  0  0
 16 39  1  0  0  0  0
 16 40  1  0  0  0  0
 17 21  1  0  0  0  0
 17 28  1  0  0  0  0
 17 41  1  0  0  0  0
 17 42  1  0  0  0  0
 18 22  1  0  0  0  0
 18 28  1  0  0  0  0
 18 43  1  0  0  0  0
 18 44  1  0  0  0  0
  2 19  1  0  0  0  0
 19 45  1  0  0  0  0
 19 46  1  0  0  0  0
  9 20  1  0  0  0  0
 20 47  1  0  0  0  0
 20 48  1  0  0  0  0
  6 21  1  0  0  0  0
 21 49  1  0  0  0  0
 21 50  1  0  0  0  0
  6 22  1  0  0  0  0
 22 51  1  0  0  0  0
 22 52  1  0  0  0  0
  4 23  1  0  0  0  0
 23 30  1  0  0  0  0
 23 53  1  0  0  0  0
 23 54  1  0  0  0  0
 24 25  4  0  0  0  0
  4 26  1  0  0  0  0
 27 32  1  0  0  0  0
  9 28  1  0  0  0  0
 28 55  1  0  0  0  0
  2 29  1  0  0  0  0
  7 29  2  0  0  0  0
  9 29  1  0  0  0  0
  3 30  1  0  0  0  0
 30 31  1  0  0  0  0
 30 56  1  0  0  0  0
  6 31  1  0  0  0  0
 10 31  2  0  0  0  0
M  END
$$$$
