UIP_H5555_1YPE
  PyMOL2.6          3D                             0

 65 70  0  0  0  0  0  0  0  0999 V2000
   20.9020  -12.0300   18.5770 C   0  0  0  0  0  0  0  0  0  0  0  0
   10.8160   -9.6400   24.3190 N   0  0  0  0  0  0  0  0  0  0  0  0
   16.6000  -12.7760   22.6030 O   0  0  0  0  0  0  0  0  0  0  0  0
   14.0640   -9.9390   21.5120 C   0  0  0  0  0  0  0  0  0  0  0  0
   10.4780  -11.8790   24.1020 N   0  3  0  0  0  0  0  0  0  0  0  0
   22.8270  -13.0620   25.7580 O   0  0  0  0  0  0  0  0  0  0  0  0
   13.6580  -12.3050   21.3750 C   0  0  0  0  0  0  0  0  0  0  0  0
   15.3840  -12.5390   19.1310 N   0  3  0  0  0  0  0  0  0  0  0  0
   23.5520  -14.1020   23.7340 O   0  0  0  0  0  0  0  0  0  0  0  0
   13.0340   -9.7900   22.4220 C   0  0  0  0  0  0  0  0  0  0  0  0
   18.3590  -13.2410   21.1420 N   0  0  0  0  0  0  0  0  0  0  0  0
   12.5950  -12.1660   22.2840 C   0  0  0  0  0  0  0  0  0  0  0  0
   19.4920  -13.6940   24.3040 C   0  0  0  0  0  0  0  0  0  0  0  0
   20.3820  -13.3700   25.3500 C   0  0  0  0  0  0  0  0  0  0  0  0
   21.2620  -14.2250   22.7050 C   0  0  0  0  0  0  0  0  0  0  0  0
   15.1810  -12.4830   16.7170 C   0  0  0  0  0  0  0  0  0  0  0  0
   16.5850  -12.0440   17.0900 C   0  0  0  0  0  0  0  0  0  0  0  0
   14.3780  -12.4050   18.0400 C   0  0  0  0  0  0  0  0  0  0  0  0
   23.9540  -13.7110   25.0730 C   0  0  0  0  0  0  0  0  0  0  0  0
   20.2760  -12.1470   19.9730 C   0  0  0  0  0  0  0  0  0  0  0  0
   18.8590  -14.4250   21.9280 C   0  0  0  0  0  0  0  0  0  0  0  0
   14.4080  -11.1940   20.9800 C   0  0  0  0  0  0  0  0  0  0  0  0
   12.2760  -10.9070   22.8150 C   0  0  0  0  0  0  0  0  0  0  0  0
   19.8900  -14.1260   22.9970 C   0  0  0  0  0  0  0  0  0  0  0  0
   21.7340  -13.4580   25.0110 C   0  0  0  0  0  0  0  0  0  0  0  0
   22.1660  -13.8890   23.7400 C   0  0  0  0  0  0  0  0  0  0  0  0
   16.7410  -12.7050   18.4770 C   0  0  0  0  0  0  0  0  0  0  0  0
   18.8750  -12.8050   19.8750 C   0  0  0  0  0  0  0  0  0  0  0  0
   15.5400  -11.3240   19.9990 C   0  0  0  0  0  0  0  0  0  0  0  0
   17.7720  -11.8600   19.2980 C   0  0  0  0  0  0  0  0  0  0  0  0
   16.9660  -11.4190   20.5600 C   0  0  0  0  0  0  0  0  0  0  0  0
   17.1700  -12.6420   21.4890 C   0  0  0  0  0  0  0  0  0  0  0  0
   11.2010  -10.8070   23.7380 C   0  0  0  0  0  0  0  0  0  0  0  0
   21.8944  -11.5625   18.6576 H   0  0  0  0  0  0  0  0  0  0  0  0
   21.0039  -13.0325   18.1358 H   0  0  0  0  0  0  0  0  0  0  0  0
   20.2563  -11.4112   17.9365 H   0  0  0  0  0  0  0  0  0  0  0  0
   14.6200   -9.0669   21.2011 H   0  0  0  0  0  0  0  0  0  0  0  0
   13.8976  -13.2803   20.9778 H   0  0  0  0  0  0  0  0  0  0  0  0
   12.8116   -8.8155   22.8310 H   0  0  0  0  0  0  0  0  0  0  0  0
   12.0206  -13.0330   22.5753 H   0  0  0  0  0  0  0  0  0  0  0  0
   18.4338  -13.6103   24.5030 H   0  0  0  0  0  0  0  0  0  0  0  0
   20.0449  -13.0775   26.3335 H   0  0  0  0  0  0  0  0  0  0  0  0
   21.6102  -14.5435   21.7335 H   0  0  0  0  0  0  0  0  0  0  0  0
   14.7493  -11.8200   15.9527 H   0  0  0  0  0  0  0  0  0  0  0  0
   15.1807  -13.5065   16.3140 H   0  0  0  0  0  0  0  0  0  0  0  0
   17.3393  -12.3956   16.3707 H   0  0  0  0  0  0  0  0  0  0  0  0
   16.6844  -10.9494   17.1336 H   0  0  0  0  0  0  0  0  0  0  0  0
   13.8456  -11.4455   18.1166 H   0  0  0  0  0  0  0  0  0  0  0  0
   13.6352  -13.2146   18.0933 H   0  0  0  0  0  0  0  0  0  0  0  0
   24.7977  -13.0080   25.0107 H   0  0  0  0  0  0  0  0  0  0  0  0
   24.2601  -14.6037   25.6381 H   0  0  0  0  0  0  0  0  0  0  0  0
   20.9240  -12.7662   20.6107 H   0  0  0  0  0  0  0  0  0  0  0  0
   20.1756  -11.1430   20.4111 H   0  0  0  0  0  0  0  0  0  0  0  0
   19.3207  -15.1218   21.2130 H   0  0  0  0  0  0  0  0  0  0  0  0
   17.9899  -14.8772   22.4281 H   0  0  0  0  0  0  0  0  0  0  0  0
   17.0698  -13.7532   18.4207 H   0  0  0  0  0  0  0  0  0  0  0  0
   19.0642  -13.6533   19.2008 H   0  0  0  0  0  0  0  0  0  0  0  0
   15.4522  -10.3674   19.4630 H   0  0  0  0  0  0  0  0  0  0  0  0
   18.2098  -11.0557   18.6884 H   0  0  0  0  0  0  0  0  0  0  0  0
   17.2244  -10.4895   21.0884 H   0  0  0  0  0  0  0  0  0  0  0  0
   10.0491   -9.6301   24.9607 H   0  0  0  0  0  0  0  0  0  0  0  0
   11.2997   -8.7914   24.1048 H   0  0  0  0  0  0  0  0  0  0  0  0
    9.7252  -11.7770   24.7524 H   0  0  0  0  0  0  0  0  0  0  0  0
   10.6925  -12.7790   23.7226 H   0  0  0  0  0  0  0  0  0  0  0  0
   15.0708  -13.3018   19.6967 H   0  0  0  0  0  0  0  0  0  0  0  0
  1 20  1  0  0  0  0
  1 34  1  0  0  0  0
  1 35  1  0  0  0  0
  1 36  1  0  0  0  0
  2 61  1  0  0  0  0
  2 62  1  0  0  0  0
  4 10  4  0  0  0  0
  4 22  4  0  0  0  0
  4 37  1  0  0  0  0
  5 63  1  0  0  0  0
  5 64  1  0  0  0  0
  7 12  4  0  0  0  0
  7 22  4  0  0  0  0
  7 38  1  0  0  0  0
  8 65  1  0  0  0  0
 10 23  4  0  0  0  0
 10 39  1  0  0  0  0
 12 23  4  0  0  0  0
 12 40  1  0  0  0  0
 13 14  4  0  0  0  0
 13 24  4  0  0  0  0
 13 41  1  0  0  0  0
 14 25  4  0  0  0  0
 14 42  1  0  0  0  0
 15 24  4  0  0  0  0
 15 26  4  0  0  0  0
 15 43  1  0  0  0  0
 16 17  1  0  0  0  0
 16 18  1  0  0  0  0
 16 44  1  0  0  0  0
 16 45  1  0  0  0  0
 17 27  1  0  0  0  0
 17 46  1  0  0  0  0
 17 47  1  0  0  0  0
  8 18  1  0  0  0  0
 18 48  1  0  0  0  0
 18 49  1  0  0  0  0
  6 19  1  0  0  0  0
  9 19  1  0  0  0  0
 19 50  1  0  0  0  0
 19 51  1  0  0  0  0
 20 28  1  0  0  0  0
 20 52  1  0  0  0  0
 20 53  1  0  0  0  0
 11 21  1  0  0  0  0
 21 24  1  0  0  0  0
 21 54  1  0  0  0  0
 21 55  1  0  0  0  0
 22 29  1  0  0  0  0
 23 33  1  0  0  0  0
  6 25  1  0  0  0  0
 25 26  4  0  0  0  0
  9 26  1  0  0  0  0
  8 27  1  0  0  0  0
 27 30  1  0  0  0  0
 27 56  1  0  0  0  0
 11 28  1  0  0  0  0
 28 30  1  0  0  0  0
 28 57  1  0  0  0  0
  8 29  1  0  0  0  0
 29 31  1  0  0  0  0
 29 58  1  0  0  0  0
 30 31  1  0  0  0  0
 30 59  1  0  0  0  0
 31 32  1  0  0  0  0
 31 60  1  0  0  0  0
  3 32  2  0  0  0  0
 11 32  1  0  0  0  0
  2 33  1  0  0  0  0
  5 33  2  0  0  0  0
M  END
$$$$
