NOC_434_1LI4
  PyMOL2.6          3D                             0

 32 34  0  0  0  0  0  0  0  0999 V2000
   49.4060  -22.6100  102.5020 C   0  0  0  0  0  0  0  0  0  0  0  0
   49.9870  -22.0920   98.9540 N   0  0  0  0  0  0  0  0  0  0  0  0
   42.7730  -20.0430  105.2780 O   0  0  0  0  0  0  0  0  0  0  0  0
   47.0330  -19.3640  100.6760 C   0  0  0  0  0  0  0  0  0  0  0  0
   49.8890  -22.7510  101.2830 N   0  0  0  0  0  0  0  0  0  0  0  0
   47.6540  -17.6860  104.4020 O   0  0  0  0  0  0  0  0  0  0  0  0
   44.9400  -19.7130  103.1690 C   0  0  0  0  0  0  0  0  0  0  0  0
   48.4820  -21.7170  102.9280 N   0  0  0  0  0  0  0  0  0  0  0  0
   45.0870  -16.8260  105.1880 O   0  0  0  0  0  0  0  0  0  0  0  0
   42.9700  -18.8800  104.4030 C   0  0  0  0  0  0  0  0  0  0  0  0
   47.7970  -19.9540   99.8240 N   0  0  0  0  0  0  0  0  0  0  0  0
   48.4810  -20.9420  100.5410 C   0  0  0  0  0  0  0  0  0  0  0  0
   47.1500  -19.8960  101.9590 N   0  0  0  0  0  0  0  0  0  0  0  0
   49.4730  -21.9390  100.2160 C   0  0  0  0  0  0  0  0  0  0  0  0
   48.0430  -20.8920  101.9050 C   0  0  0  0  0  0  0  0  0  0  0  0
   44.3370  -18.8100  104.0190 C   0  0  0  0  0  0  0  0  0  0  0  0
   46.4280  -19.4820  103.1520 C   0  0  0  0  0  0  0  0  0  0  0  0
   46.4790  -17.9870  103.6650 C   0  0  0  0  0  0  0  0  0  0  0  0
   45.3030  -17.8470  104.5790 C   0  0  0  0  0  0  0  0  0  0  0  0
   49.7935  -23.2871  103.2489 H   0  0  0  0  0  0  0  0  0  0  0  0
   46.3737  -18.5465  100.4242 H   0  0  0  0  0  0  0  0  0  0  0  0
   44.7336  -20.7358  103.5174 H   0  0  0  0  0  0  0  0  0  0  0  0
   44.5389  -19.5817  102.1532 H   0  0  0  0  0  0  0  0  0  0  0  0
   42.6913  -17.9624  104.9418 H   0  0  0  0  0  0  0  0  0  0  0  0
   42.3405  -18.9825  103.5068 H   0  0  0  0  0  0  0  0  0  0  0  0
   43.3400  -18.4216  103.7638 H   0  0  0  0  0  0  0  0  0  0  0  0
   47.0307  -20.1475  103.7875 H   0  0  0  0  0  0  0  0  0  0  0  0
   46.4688  -17.3031  102.8035 H   0  0  0  0  0  0  0  0  0  0  0  0
   50.6574  -22.8340   98.9543 H   0  0  0  0  0  0  0  0  0  0  0  0
   49.2476  -22.3112   98.3174 H   0  0  0  0  0  0  0  0  0  0  0  0
   41.8605  -20.0938  105.5373 H   0  0  0  0  0  0  0  0  0  0  0  0
   47.4255  -17.1698  105.1661 H   0  0  0  0  0  0  0  0  0  0  0  0
  1  5  4  0  0  0  0
  1  8  4  0  0  0  0
  1 20  1  0  0  0  0
  2 29  1  0  0  0  0
  2 30  1  0  0  0  0
  3 31  1  0  0  0  0
  4 11  2  0  0  0  0
  4 13  1  0  0  0  0
  4 21  1  0  0  0  0
  6 32  1  0  0  0  0
  7 16  1  0  0  0  0
  7 17  1  0  0  0  0
  7 22  1  0  0  0  0
  7 23  1  0  0  0  0
  3 10  1  0  0  0  0
 10 16  1  0  0  0  0
 10 24  1  0  0  0  0
 10 25  1  0  0  0  0
 11 12  1  0  0  0  0
 12 14  4  0  0  0  0
 12 15  4  0  0  0  0
  2 14  1  0  0  0  0
  5 14  4  0  0  0  0
  8 15  4  0  0  0  0
 13 15  1  0  0  0  0
 16 19  1  0  0  0  0
 16 26  1  0  0  0  0
 13 17  1  0  0  0  0
 17 18  1  0  0  0  0
 17 27  1  0  0  0  0
  6 18  1  0  0  0  0
 18 19  1  0  0  0  0
 18 28  1  0  0  0  0
  9 19  2  0  0  0  0
M  END
$$$$
