HUX_803_1E66
  PyMOL2.6          3D                             0

 40 43  0  0  0  0  0  0  0  0999 V2000
    4.3940   63.6190   64.1310 C   0  0  0  0  0  0  0  0  0  0  0  0
    1.8860   69.4300   66.4690 N   0  0  0  0  0  0  0  0  0  0  0  0
    4.9340   70.6300   69.2740 C   0  0  0  0  0  0  0  0  0  0  0  0
    5.9600   69.5810   65.3090 N   0  0  0  0  0  0  0  0  0  0  0  0
    3.9130   70.3030   68.4610 C   0  0  0  0  0  0  0  0  0  0  0  0
    6.6700   70.2770   67.4340 C   0  0  0  0  0  0  0  0  0  0  0  0
    5.5190   68.7840   62.9970 C   0  0  0  0  0  0  0  0  0  0  0  0
    3.1710   68.5550   62.2170 C   0  0  0  0  0  0  0  0  0  0  0  0
    4.2820   66.4050   62.9960 C   0  0  0  0  0  0  0  0  0  0  0  0
    2.3030   67.1800   64.1500 C   0  0  0  0  0  0  0  0  0  0  0  0
    3.2790   64.6360   64.4660 C   0  0  0  0  0  0  0  0  0  0  0  0
    6.3780   70.6350   68.8450 C   0  0  0  0  0  0  0  0  0  0  0  0
    4.2480   69.9120   67.0430 C   0  0  0  0  0  0  0  0  0  0  0  0
    5.5690   69.9500   66.6660 C   0  0  0  0  0  0  0  0  0  0  0  0
    4.9750   69.1980   64.4700 C   0  0  0  0  0  0  0  0  0  0  0  0
    3.6230   69.1100   64.7520 C   0  0  0  0  0  0  0  0  0  0  0  0
    3.2280   69.5120   66.1460 C   0  0  0  0  0  0  0  0  0  0  0  0
    4.5270   67.8800   62.2460 C   0  0  0  0  0  0  0  0  0  0  0  0
    2.6210   68.6020   63.7090 C   0  0  0  0  0  0  0  0  0  0  0  0
    3.3050   66.0890   63.8490 C   0  0  0  0  0  0  0  0  0  0  0  0
    7.5600   70.9960   69.9590 Cl  0  0  0  0  0  0  0  0  0  0  0  0
    4.1969   62.6721   64.6550 H   0  0  0  0  0  0  0  0  0  0  0  0
    4.4130   63.4402   63.0458 H   0  0  0  0  0  0  0  0  0  0  0  0
    5.3657   64.0210   64.4536 H   0  0  0  0  0  0  0  0  0  0  0  0
    4.7050   70.9048   70.2931 H   0  0  0  0  0  0  0  0  0  0  0  0
    2.8913   70.3198   68.8107 H   0  0  0  0  0  0  0  0  0  0  0  0
    7.6738   70.2725   67.0354 H   0  0  0  0  0  0  0  0  0  0  0  0
    5.6722   69.7010   62.4091 H   0  0  0  0  0  0  0  0  0  0  0  0
    6.4688   68.2416   63.1136 H   0  0  0  0  0  0  0  0  0  0  0  0
    3.2662   69.5756   61.8178 H   0  0  0  0  0  0  0  0  0  0  0  0
    2.4799   67.9858   61.5780 H   0  0  0  0  0  0  0  0  0  0  0  0
    4.1438   65.7020   62.1613 H   0  0  0  0  0  0  0  0  0  0  0  0
    5.2031   66.2453   63.5758 H   0  0  0  0  0  0  0  0  0  0  0  0
    1.3815   66.9556   64.6667 H   0  0  0  0  0  0  0  0  0  0  0  0
    2.3399   64.1786   64.1213 H   0  0  0  0  0  0  0  0  0  0  0  0
    3.3116   64.7709   65.5572 H   0  0  0  0  0  0  0  0  0  0  0  0
    4.9584   67.7151   61.2477 H   0  0  0  0  0  0  0  0  0  0  0  0
    1.7624   69.2887   63.6740 H   0  0  0  0  0  0  0  0  0  0  0  0
    1.3683   69.1253   65.6696 H   0  0  0  0  0  0  0  0  0  0  0  0
    1.7623   68.7759   67.2152 H   0  0  0  0  0  0  0  0  0  0  0  0
  1 11  1  0  0  0  0
  1 22  1  0  0  0  0
  1 23  1  0  0  0  0
  1 24  1  0  0  0  0
  2 39  1  0  0  0  0
  2 40  1  0  0  0  0
  3  5  4  0  0  0  0
  3 12  4  0  0  0  0
  3 25  1  0  0  0  0
  5 13  4  0  0  0  0
  5 26  1  0  0  0  0
  6 12  4  0  0  0  0
  6 14  4  0  0  0  0
  6 27  1  0  0  0  0
  7 15  1  0  0  0  0
  7 18  1  0  0  0  0
  7 28  1  0  0  0  0
  7 29  1  0  0  0  0
  8 18  1  0  0  0  0
  8 19  1  0  0  0  0
  8 30  1  0  0  0  0
  8 31  1  0  0  0  0
  9 18  1  0  0  0  0
  9 20  1  0  0  0  0
  9 32  1  0  0  0  0
  9 33  1  0  0  0  0
 10 19  1  0  0  0  0
 10 20  2  0  0  0  0
 10 34  1  0  0  0  0
 11 20  1  0  0  0  0
 11 35  1  0  0  0  0
 11 36  1  0  0  0  0
 12 21  1  0  0  0  0
 13 14  4  0  0  0  0
 13 17  4  0  0  0  0
  4 14  4  0  0  0  0
  4 15  4  0  0  0  0
 15 16  4  0  0  0  0
 16 17  4  0  0  0  0
 16 19  1  0  0  0  0
  2 17  1  0  0  0  0
 18 37  1  0  0  0  0
 19 38  1  0  0  0  0
M  END
$$$$
