626_500_2OWB
  PyMOL2.6          3D                             0

 57 61  0  0  0  0  0  0  0  0999 V2000
    1.4540   16.8830   70.5530 C   0  0  0  0  0  0  0  0  0  0  0  0
    2.2070   28.5660   68.0640 N   0  0  0  0  0  0  0  0  0  0  0  0
   -0.2580   29.7610   63.4780 O   0  0  0  0  0  0  0  0  0  0  0  0
   -2.3310   25.7200   61.9460 S   0  0  0  0  0  0  0  0  0  0  0  0
    0.0640   25.9230   60.9060 C   0  0  0  0  0  0  0  0  0  0  0  0
    2.0440   27.5860   68.8750 N   0  0  0  0  0  0  0  0  0  0  0  0
   -0.8200   24.8810   67.7080 O   0  0  0  0  0  0  0  0  0  0  0  0
   -0.0550   27.0070   61.8670 C   0  0  0  0  0  0  0  0  0  0  0  0
    0.7470   25.6700   69.1520 N   0  0  0  0  0  0  0  0  0  0  0  0
    0.2030   23.3230   70.8220 C   0  0  0  0  0  0  0  0  0  0  0  0
   -0.0340   28.4200   65.2440 N   0  0  0  0  0  0  0  0  0  0  0  0
   -1.2930   22.5310   69.1120 C   0  0  0  0  0  0  0  0  0  0  0  0
    0.4230   17.6180   71.3230 N   0  3  0  0  0  0  0  0  0  0  0  0
   -0.0320   22.1590   71.5690 C   0  0  0  0  0  0  0  0  0  0  0  0
   -1.1260   19.9640   71.9180 N   0  0  0  0  0  0  0  0  0  0  0  0
   -1.5290   21.3650   69.8610 C   0  0  0  0  0  0  0  0  0  0  0  0
   -1.1010   25.1660   60.8630 C   0  0  0  0  0  0  0  0  0  0  0  0
   -0.3620   27.2160   66.0640 C   0  0  0  0  0  0  0  0  0  0  0  0
    1.0500   29.2840   65.7690 C   0  0  0  0  0  0  0  0  0  0  0  0
   -0.7340   18.0130   70.4850 C   0  0  0  0  0  0  0  0  0  0  0  0
    0.9990   18.7730   72.0480 C   0  0  0  0  0  0  0  0  0  0  0  0
   -1.7640   18.7760   71.3230 C   0  0  0  0  0  0  0  0  0  0  0  0
   -0.0820   19.5050   72.8470 C   0  0  0  0  0  0  0  0  0  0  0  0
   -1.7960   27.9610   63.5460 C   0  0  0  0  0  0  0  0  0  0  0  0
   -0.4150   23.5420   69.5720 C   0  0  0  0  0  0  0  0  0  0  0  0
   -0.9040   21.1450   71.1150 C   0  0  0  0  0  0  0  0  0  0  0  0
   -1.3080   26.9940   62.4920 C   0  0  0  0  0  0  0  0  0  0  0  0
    0.6220   27.4120   67.1700 C   0  0  0  0  0  0  0  0  0  0  0  0
    1.3560   28.5080   66.9920 C   0  0  0  0  0  0  0  0  0  0  0  0
    1.0950   26.8180   68.4280 C   0  0  0  0  0  0  0  0  0  0  0  0
   -0.6310   28.7700   64.1010 C   0  0  0  0  0  0  0  0  0  0  0  0
   -0.1730   24.7700   68.7470 C   0  0  0  0  0  0  0  0  0  0  0  0
    2.2874   16.6142   71.2188 H   0  0  0  0  0  0  0  0  0  0  0  0
    1.0129   15.9683   70.1302 H   0  0  0  0  0  0  0  0  0  0  0  0
    1.8270   17.5209   69.7382 H   0  0  0  0  0  0  0  0  0  0  0  0
    0.9408   25.7313   60.3053 H   0  0  0  0  0  0  0  0  0  0  0  0
    0.7219   27.7286   62.0723 H   0  0  0  0  0  0  0  0  0  0  0  0
    0.8751   24.0720   71.2141 H   0  0  0  0  0  0  0  0  0  0  0  0
   -1.7932   22.6586   68.1634 H   0  0  0  0  0  0  0  0  0  0  0  0
    0.4681   22.0348   72.5182 H   0  0  0  0  0  0  0  0  0  0  0  0
   -2.2038   20.6172   69.4714 H   0  0  0  0  0  0  0  0  0  0  0  0
   -1.2266   24.3118   60.2141 H   0  0  0  0  0  0  0  0  0  0  0  0
   -1.0924   26.4366   65.9048 H   0  0  0  0  0  0  0  0  0  0  0  0
    1.4816   30.1947   65.3807 H   0  0  0  0  0  0  0  0  0  0  0  0
   -1.2043   17.1095   70.0696 H   0  0  0  0  0  0  0  0  0  0  0  0
   -0.3835   18.6596   69.6671 H   0  0  0  0  0  0  0  0  0  0  0  0
    1.4412   19.4694   71.3204 H   0  0  0  0  0  0  0  0  0  0  0  0
    1.7745   18.4123   72.7397 H   0  0  0  0  0  0  0  0  0  0  0  0
   -2.5997   19.0907   70.6807 H   0  0  0  0  0  0  0  0  0  0  0  0
   -2.1431   18.1231   72.1230 H   0  0  0  0  0  0  0  0  0  0  0  0
   -0.5203   18.8228   73.5903 H   0  0  0  0  0  0  0  0  0  0  0  0
    0.3601   20.3689   73.3649 H   0  0  0  0  0  0  0  0  0  0  0  0
   -2.5302   28.6458   63.0964 H   0  0  0  0  0  0  0  0  0  0  0  0
   -2.2668   27.3966   64.3644 H   0  0  0  0  0  0  0  0  0  0  0  0
    2.8809   29.2923   68.1992 H   0  0  0  0  0  0  0  0  0  0  0  0
    1.2095   25.5075   70.0236 H   0  0  0  0  0  0  0  0  0  0  0  0
    0.0718   16.9821   72.0102 H   0  0  0  0  0  0  0  0  0  0  0  0
  1 13  1  0  0  0  0
  1 33  1  0  0  0  0
  1 34  1  0  0  0  0
  1 35  1  0  0  0  0
  2  6  1  0  0  0  0
  2 55  1  0  0  0  0
  5  8  1  0  0  0  0
  5 17  2  0  0  0  0
  5 36  1  0  0  0  0
  8 27  2  0  0  0  0
  8 37  1  0  0  0  0
  9 56  1  0  0  0  0
 10 14  4  0  0  0  0
 10 25  4  0  0  0  0
 10 38  1  0  0  0  0
 12 16  4  0  0  0  0
 12 25  4  0  0  0  0
 12 39  1  0  0  0  0
 13 57  1  0  0  0  0
 14 26  4  0  0  0  0
 14 40  1  0  0  0  0
 16 26  4  0  0  0  0
 16 41  1  0  0  0  0
  4 17  1  0  0  0  0
 17 42  1  0  0  0  0
 11 18  1  0  0  0  0
 18 28  2  0  0  0  0
 18 43  1  0  0  0  0
 11 19  1  0  0  0  0
 19 29  2  0  0  0  0
 19 44  1  0  0  0  0
 13 20  1  0  0  0  0
 20 22  1  0  0  0  0
 20 45  1  0  0  0  0
 20 46  1  0  0  0  0
 13 21  1  0  0  0  0
 21 23  1  0  0  0  0
 21 47  1  0  0  0  0
 21 48  1  0  0  0  0
 15 22  1  0  0  0  0
 22 49  1  0  0  0  0
 22 50  1  0  0  0  0
 15 23  1  0  0  0  0
 23 51  1  0  0  0  0
 23 52  1  0  0  0  0
 24 27  1  0  0  0  0
 24 31  1  0  0  0  0
 24 53  1  0  0  0  0
 24 54  1  0  0  0  0
 25 32  1  0  0  0  0
 15 26  1  0  0  0  0
  4 27  1  0  0  0  0
 28 29  1  0  0  0  0
 28 30  1  0  0  0  0
  2 29  1  0  0  0  0
  6 30  2  0  0  0  0
  9 30  1  0  0  0  0
  3 31  2  0  0  0  0
 11 31  1  0  0  0  0
  7 32  2  0  0  0  0
  9 32  1  0  0  0  0
M  END
$$$$
