HYZ_1_2RGP
  PyMOL2.6          3D                             0

 60 64  0  0  0  0  0  0  0  0999 V2000
   16.0310   40.2220   97.6320 C   0  0  0  0  0  0  0  0  0  0  0  0
   13.9670   33.2580   86.9490 N   0  0  0  0  0  0  0  0  0  0  0  0
   16.8780   39.0760   97.6860 C   0  0  0  0  0  0  0  0  0  0  0  0
   15.9710   34.5190   97.0190 N   0  0  0  0  0  0  0  0  0  0  0  0
   14.7180   40.1160   97.0990 C   0  0  0  0  0  0  0  0  0  0  0  0
   12.9540   33.9630   88.9110 N   0  0  0  0  0  0  0  0  0  0  0  0
   17.3900   35.7120   92.7350 C   0  0  0  0  0  0  0  0  0  0  0  0
   14.2120   34.4440   90.8920 N   0  0  0  0  0  0  0  0  0  0  0  0
   17.5140   36.1290   94.0760 C   0  0  0  0  0  0  0  0  0  0  0  0
   16.9000   32.2900   87.5590 N   0  0  0  0  0  0  0  0  0  0  0  0
   15.0830   37.7300   96.6750 C   0  0  0  0  0  0  0  0  0  0  0  0
   16.5250   34.2480   91.0370 N   0  0  0  0  0  0  0  0  0  0  0  0
   15.9650   33.8170   93.4030 C   0  0  0  0  0  0  0  0  0  0  0  0
   16.7310   35.4930   96.4340 N   0  0  0  0  0  0  0  0  0  0  0  0
   15.5850   33.7600   95.9940 C   0  0  0  0  0  0  0  0  0  0  0  0
   18.1460   32.3440   86.9840 N   0  0  0  0  0  0  0  0  0  0  0  0
   13.0410   34.3520   90.2010 C   0  0  0  0  0  0  0  0  0  0  0  0
   20.5540   31.1900   85.6350 C   0  0  0  0  0  0  0  0  0  0  0  0
   19.5090   31.9970   84.8580 C   0  0  0  0  0  0  0  0  0  0  0  0
   20.5730   31.5960   87.1120 C   0  0  0  0  0  0  0  0  0  0  0  0
   18.1270   31.9340   85.5370 C   0  0  0  0  0  0  0  0  0  0  0  0
   19.1670   31.5240   87.7400 C   0  0  0  0  0  0  0  0  0  0  0  0
   16.6440   33.3950   88.1860 C   0  0  0  0  0  0  0  0  0  0  0  0
   17.3230   36.5580   97.2600 C   0  0  0  0  0  0  0  0  0  0  0  0
   16.4190   37.8080   97.2090 C   0  0  0  0  0  0  0  0  0  0  0  0
   16.6250   34.5740   92.3820 C   0  0  0  0  0  0  0  0  0  0  0  0
   14.2560   38.8690   96.6250 C   0  0  0  0  0  0  0  0  0  0  0  0
   16.8400   35.3580   95.0700 C   0  0  0  0  0  0  0  0  0  0  0  0
   16.0750   34.2210   94.7560 C   0  0  0  0  0  0  0  0  0  0  0  0
   15.3910   33.7190   88.8960 C   0  0  0  0  0  0  0  0  0  0  0  0
   14.1240   33.6450   88.2640 C   0  0  0  0  0  0  0  0  0  0  0  0
   15.3910   34.1200   90.2310 C   0  0  0  0  0  0  0  0  0  0  0  0
   13.0110   38.7560   96.1180 F   0  0  0  0  0  0  0  0  0  0  0  0
   16.3885   41.1734   97.9973 H   0  0  0  0  0  0  0  0  0  0  0  0
   17.8752   39.1663   98.0908 H   0  0  0  0  0  0  0  0  0  0  0  0
   14.0772   40.9844   97.0568 H   0  0  0  0  0  0  0  0  0  0  0  0
   17.8898   36.2733   91.9594 H   0  0  0  0  0  0  0  0  0  0  0  0
   18.0968   36.9988   94.3410 H   0  0  0  0  0  0  0  0  0  0  0  0
   14.7106   36.7850   96.3080 H   0  0  0  0  0  0  0  0  0  0  0  0
   15.3866   32.9429   93.1426 H   0  0  0  0  0  0  0  0  0  0  0  0
   14.9624   32.8840   96.1009 H   0  0  0  0  0  0  0  0  0  0  0  0
   12.1267   34.6058   90.7168 H   0  0  0  0  0  0  0  0  0  0  0  0
   20.3074   30.1206   85.5612 H   0  0  0  0  0  0  0  0  0  0  0  0
   21.5467   31.3774   85.1998 H   0  0  0  0  0  0  0  0  0  0  0  0
   19.8340   33.0469   84.8125 H   0  0  0  0  0  0  0  0  0  0  0  0
   19.4243   31.5825   83.8426 H   0  0  0  0  0  0  0  0  0  0  0  0
   21.2396   30.9123   87.6581 H   0  0  0  0  0  0  0  0  0  0  0  0
   20.9426   32.6291   87.1899 H   0  0  0  0  0  0  0  0  0  0  0  0
   17.4503   32.6135   84.9982 H   0  0  0  0  0  0  0  0  0  0  0  0
   17.7655   30.8966   85.4805 H   0  0  0  0  0  0  0  0  0  0  0  0
   18.8393   30.4740   87.7378 H   0  0  0  0  0  0  0  0  0  0  0  0
   19.2266   31.9073   88.7693 H   0  0  0  0  0  0  0  0  0  0  0  0
   16.7263   34.1720   87.4118 H   0  0  0  0  0  0  0  0  0  0  0  0
   17.4196   33.4519   88.9639 H   0  0  0  0  0  0  0  0  0  0  0  0
   18.3212   36.8107   96.8732 H   0  0  0  0  0  0  0  0  0  0  0  0
   17.4106   36.2103   98.2999 H   0  0  0  0  0  0  0  0  0  0  0  0
   12.9970   33.2831   86.7072 H   0  0  0  0  0  0  0  0  0  0  0  0
   14.4747   33.8822   86.3551 H   0  0  0  0  0  0  0  0  0  0  0  0
   16.8705   31.5298   88.2080 H   0  0  0  0  0  0  0  0  0  0  0  0
   17.3957   34.0793   90.5750 H   0  0  0  0  0  0  0  0  0  0  0  0
  1  3  4  0  0  0  0
  1  5  4  0  0  0  0
  1 34  1  0  0  0  0
  2 57  1  0  0  0  0
  2 58  1  0  0  0  0
  3 25  4  0  0  0  0
  3 35  1  0  0  0  0
  4 14  1  0  0  0  0
  5 27  4  0  0  0  0
  5 36  1  0  0  0  0
  7  9  4  0  0  0  0
  7 26  4  0  0  0  0
  7 37  1  0  0  0  0
  9 28  4  0  0  0  0
  9 38  1  0  0  0  0
 10 16  1  0  0  0  0
 10 59  1  0  0  0  0
 11 25  4  0  0  0  0
 11 27  4  0  0  0  0
 11 39  1  0  0  0  0
 12 60  1  0  0  0  0
 13 26  4  0  0  0  0
 13 29  4  0  0  0  0
 13 40  1  0  0  0  0
  4 15  2  0  0  0  0
 15 29  1  0  0  0  0
 15 41  1  0  0  0  0
  6 17  4  0  0  0  0
  8 17  4  0  0  0  0
 17 42  1  0  0  0  0
 18 19  1  0  0  0  0
 18 20  1  0  0  0  0
 18 43  1  0  0  0  0
 18 44  1  0  0  0  0
 19 21  1  0  0  0  0
 19 45  1  0  0  0  0
 19 46  1  0  0  0  0
 20 22  1  0  0  0  0
 20 47  1  0  0  0  0
 20 48  1  0  0  0  0
 16 21  1  0  0  0  0
 21 49  1  0  0  0  0
 21 50  1  0  0  0  0
 16 22  1  0  0  0  0
 22 51  1  0  0  0  0
 22 52  1  0  0  0  0
 10 23  1  0  0  0  0
 23 30  1  0  0  0  0
 23 53  1  0  0  0  0
 23 54  1  0  0  0  0
 14 24  1  0  0  0  0
 24 25  1  0  0  0  0
 24 55  1  0  0  0  0
 24 56  1  0  0  0  0
 12 26  1  0  0  0  0
 27 33  1  0  0  0  0
 14 28  1  0  0  0  0
 28 29  4  0  0  0  0
 30 31  4  0  0  0  0
 30 32  4  0  0  0  0
  2 31  1  0  0  0  0
  6 31  4  0  0  0  0
  8 32  4  0  0  0  0
 12 32  1  0  0  0  0
M  END
$$$$
