KBT_561_3LAN
  PyMOL2.6          3D                             0

 49 50  0  0  0  0  0  0  0  0999 V2000
    5.6690    8.1410   16.9450 C   0  0  0  0  0  0  0  0  0  0  0  0
    9.9510   11.6150   23.6670 N   0  0  0  0  0  0  0  0  0  0  0  0
   11.1820   13.5750   13.3420 O   0  0  0  0  0  0  0  0  0  0  0  0
   10.6220   16.2500   19.8160 C   0  0  0  0  0  0  0  0  0  0  0  0
    9.0530   13.1270   13.7110 N   0  0  0  0  0  0  0  0  0  0  0  0
    6.9020   12.7200   13.9650 O   0  0  0  0  0  0  0  0  0  0  0  0
   12.7560   14.0890   16.0320 C   0  0  0  0  0  0  0  0  0  0  0  0
    8.2520   12.2250   15.7100 N   0  0  0  0  0  0  0  0  0  0  0  0
    9.4480   10.4590   17.8200 O   0  0  0  0  0  0  0  0  0  0  0  0
   13.0140   11.6640   15.1560 C   0  0  0  0  0  0  0  0  0  0  0  0
   10.3330   14.1290   21.2550 C   0  0  0  0  0  0  0  0  0  0  0  0
   10.1410   13.9510   18.8060 C   0  0  0  0  0  0  0  0  0  0  0  0
    9.8790   11.9150   20.1960 C   0  0  0  0  0  0  0  0  0  0  0  0
    6.0340    9.5920   17.3160 C   0  0  0  0  0  0  0  0  0  0  0  0
    6.6540   10.2910   16.0940 C   0  0  0  0  0  0  0  0  0  0  0  0
    7.0190   11.7460   16.4800 C   0  0  0  0  0  0  0  0  0  0  0  0
   10.0320   12.1070   22.6320 C   0  0  0  0  0  0  0  0  0  0  0  0
   10.3650   14.7480   19.9670 C   0  0  0  0  0  0  0  0  0  0  0  0
   10.0890   12.7150   21.3590 C   0  0  0  0  0  0  0  0  0  0  0  0
    9.9010   12.5270   18.9080 C   0  0  0  0  0  0  0  0  0  0  0  0
   10.6870   12.6420   15.5240 C   0  0  0  0  0  0  0  0  0  0  0  0
    9.5730   12.1940   16.2580 C   0  0  0  0  0  0  0  0  0  0  0  0
   10.3390   13.1470   14.1140 C   0  0  0  0  0  0  0  0  0  0  0  0
    8.0270   12.6800   14.4650 C   0  0  0  0  0  0  0  0  0  0  0  0
   12.1430   12.6460   16.0310 C   0  0  0  0  0  0  0  0  0  0  0  0
    9.6430   11.6580   17.6840 C   0  0  0  0  0  0  0  0  0  0  0  0
    5.2254    7.6394   17.8177 H   0  0  0  0  0  0  0  0  0  0  0  0
    4.9444    8.1455   16.1174 H   0  0  0  0  0  0  0  0  0  0  0  0
    6.5767    7.6026   16.6349 H   0  0  0  0  0  0  0  0  0  0  0  0
   11.7024   16.4291   19.7130 H   0  0  0  0  0  0  0  0  0  0  0  0
   10.1017   16.6227   18.9213 H   0  0  0  0  0  0  0  0  0  0  0  0
   10.2463   16.7773   20.7052 H   0  0  0  0  0  0  0  0  0  0  0  0
   12.1314   14.7528   16.6478 H   0  0  0  0  0  0  0  0  0  0  0  0
   13.7741   14.0544   16.4472 H   0  0  0  0  0  0  0  0  0  0  0  0
   12.7929   14.4722   15.0016 H   0  0  0  0  0  0  0  0  0  0  0  0
   12.5635   10.6606   15.1717 H   0  0  0  0  0  0  0  0  0  0  0  0
   13.0524   12.0323   14.1202 H   0  0  0  0  0  0  0  0  0  0  0  0
   14.0336   11.6145   15.5658 H   0  0  0  0  0  0  0  0  0  0  0  0
   10.4911   14.7196   22.1453 H   0  0  0  0  0  0  0  0  0  0  0  0
   10.1506   14.4184   17.8324 H   0  0  0  0  0  0  0  0  0  0  0  0
    9.7046   10.8534   20.2906 H   0  0  0  0  0  0  0  0  0  0  0  0
    5.1267   10.1310   17.6262 H   0  0  0  0  0  0  0  0  0  0  0  0
    6.7586    9.5882   18.1436 H   0  0  0  0  0  0  0  0  0  0  0  0
    7.5606    9.7528   15.7802 H   0  0  0  0  0  0  0  0  0  0  0  0
    5.9307   10.2983   15.2652 H   0  0  0  0  0  0  0  0  0  0  0  0
    6.1701   12.4031   16.2400 H   0  0  0  0  0  0  0  0  0  0  0  0
    7.2328   11.7869   17.5583 H   0  0  0  0  0  0  0  0  0  0  0  0
   12.1445   12.2971   17.0742 H   0  0  0  0  0  0  0  0  0  0  0  0
    8.8456   13.4656   12.7932 H   0  0  0  0  0  0  0  0  0  0  0  0
  1 14  1  0  0  0  0
  1 27  1  0  0  0  0
  1 28  1  0  0  0  0
  1 29  1  0  0  0  0
  4 18  1  0  0  0  0
  4 30  1  0  0  0  0
  4 31  1  0  0  0  0
  4 32  1  0  0  0  0
  5 49  1  0  0  0  0
  7 25  1  0  0  0  0
  7 33  1  0  0  0  0
  7 34  1  0  0  0  0
  7 35  1  0  0  0  0
 10 25  1  0  0  0  0
 10 36  1  0  0  0  0
 10 37  1  0  0  0  0
 10 38  1  0  0  0  0
 11 18  4  0  0  0  0
 11 19  4  0  0  0  0
 11 39  1  0  0  0  0
 12 18  4  0  0  0  0
 12 20  4  0  0  0  0
 12 40  1  0  0  0  0
 13 19  4  0  0  0  0
 13 20  4  0  0  0  0
 13 41  1  0  0  0  0
 14 15  1  0  0  0  0
 14 42  1  0  0  0  0
 14 43  1  0  0  0  0
 15 16  1  0  0  0  0
 15 44  1  0  0  0  0
 15 45  1  0  0  0  0
  8 16  1  0  0  0  0
 16 46  1  0  0  0  0
 16 47  1  0  0  0  0
  2 17  3  0  0  0  0
 17 19  1  0  0  0  0
 20 26  1  0  0  0  0
 21 22  2  0  0  0  0
 21 23  1  0  0  0  0
 21 25  1  0  0  0  0
  8 22  1  0  0  0  0
 22 26  1  0  0  0  0
  3 23  2  0  0  0  0
  5 23  1  0  0  0  0
  5 24  1  0  0  0  0
  6 24  2  0  0  0  0
  8 24  1  0  0  0  0
 25 48  1  0  0  0  0
  9 26  2  0  0  0  0
M  END
$$$$
