982_301_2AZR
  PyMOL2.6          3D                             0

 22 23  0  0  0  0  0  0  0  0999 V2000
   46.4850   11.0190    2.3170 C   0  0  0  0  0  0  0  0  0  0  0  0
   45.1360   11.8170    0.4610 N   0  0  0  0  0  0  0  0  0  0  0  0
   46.6160   16.9760    5.7460 O   0  5  0  0  0  0  0  0  0  0  0  0
   44.3260   14.3420    0.4060 S   0  0  0  0  0  0  0  0  0  0  0  0
   46.4550   12.2720    2.9360 C   0  0  0  0  0  0  0  0  0  0  0  0
   44.4540   17.5450    2.7620 O   0  5  0  0  0  0  0  0  0  0  0  0
   45.8240   10.8500    1.1090 C   0  0  0  0  0  0  0  0  0  0  0  0
   48.5250   17.6360    4.7770 O   0  0  0  0  0  0  0  0  0  0  0  0
   47.2510   16.0130    3.6410 C   0  0  0  0  0  0  0  0  0  0  0  0
   43.8000   17.2620    0.6140 O   0  0  0  0  0  0  0  0  0  0  0  0
   45.7540   13.3290    2.3110 C   0  0  0  0  0  0  0  0  0  0  0  0
   46.0160   15.2980    3.8050 O   0  0  0  0  0  0  0  0  0  0  0  0
   45.5370   14.7090    2.6630 C   0  0  0  0  0  0  0  0  0  0  0  0
   44.7650   15.3620    1.7120 C   0  0  0  0  0  0  0  0  0  0  0  0
   45.1370   13.0150    1.0940 C   0  0  0  0  0  0  0  0  0  0  0  0
   47.4750   16.9630    4.8310 C   0  0  0  0  0  0  0  0  0  0  0  0
   44.3010   16.8600    1.7050 C   0  0  0  0  0  0  0  0  0  0  0  0
   47.0146   10.1951    2.7722 H   0  0  0  0  0  0  0  0  0  0  0  0
   46.9597   12.4304    3.8776 H   0  0  0  0  0  0  0  0  0  0  0  0
   45.8618    9.8723    0.6517 H   0  0  0  0  0  0  0  0  0  0  0  0
   47.2098   16.5996    2.7114 H   0  0  0  0  0  0  0  0  0  0  0  0
   48.0821   15.2943    3.5892 H   0  0  0  0  0  0  0  0  0  0  0  0
  1  5  4  0  0  0  0
  1  7  4  0  0  0  0
  1 18  1  0  0  0  0
  5 11  4  0  0  0  0
  5 19  1  0  0  0  0
  2  7  4  0  0  0  0
  7 20  1  0  0  0  0
  9 12  1  0  0  0  0
  9 16  1  0  0  0  0
  9 21  1  0  0  0  0
  9 22  1  0  0  0  0
 11 13  1  0  0  0  0
 11 15  4  0  0  0  0
 12 13  1  0  0  0  0
 13 14  2  0  0  0  0
  4 14  1  0  0  0  0
 14 17  1  0  0  0  0
  2 15  4  0  0  0  0
  4 15  1  0  0  0  0
  3 16  1  0  0  0  0
  8 16  2  0  0  0  0
  6 17  1  0  0  0  0
 10 17  2  0  0  0  0
M  END
$$$$
