LGF_361_2QD9
  PyMOL2.6          3D                             0

 64 69  0  0  0  0  0  0  0  0999 V2000
    2.1800   -0.0500   23.9140 C   0  0  0  0  0  0  0  0  0  0  0  0
    0.0150   -0.2090   28.3880 N   0  0  0  0  0  0  0  0  0  0  0  0
   -5.5640   -4.6960   30.1400 O   0  0  0  0  0  0  0  0  0  0  0  0
   -3.9000    1.3950   16.0670 C   0  0  0  0  0  0  0  0  0  0  0  0
   -2.7010    2.6700   20.2160 N   0  0  0  0  0  0  0  0  0  0  0  0
   -1.7520   -3.3570   23.1670 O   0  0  0  0  0  0  0  0  0  0  0  0
   -3.1990    1.7070   17.1910 C   0  0  0  0  0  0  0  0  0  0  0  0
    0.5780   -0.4660   26.0620 N   0  0  0  0  0  0  0  0  0  0  0  0
   -3.8580   -2.6410   28.3010 O   0  0  0  0  0  0  0  0  0  0  0  0
   -5.8630    0.5360   17.1740 C   0  0  0  0  0  0  0  0  0  0  0  0
   -2.8910    0.5150   20.6160 N   0  0  0  0  0  0  0  0  0  0  0  0
   -3.4460   -0.4910   30.9570 O   0  0  0  0  0  0  0  0  0  0  0  0
   -1.9510   -1.8190   25.9190 C   0  0  0  0  0  0  0  0  0  0  0  0
   -1.9080   -1.1750   22.4590 N   0  0  0  0  0  0  0  0  0  0  0  0
    0.9070   -0.7750   23.8330 O   0  0  0  0  0  0  0  0  0  0  0  0
   -1.0250   -0.5800   29.2420 C   0  0  0  0  0  0  0  0  0  0  0  0
   -4.2140   -2.5750   31.2580 N   0  0  0  0  0  0  0  0  0  0  0  0
   -2.0610    2.3530   21.4570 C   0  0  0  0  0  0  0  0  0  0  0  0
   -5.8970   -3.7630   32.4010 C   0  0  0  0  0  0  0  0  0  0  0  0
   -3.2270   -0.9140   20.4330 C   0  0  0  0  0  0  0  0  0  0  0  0
   -5.4650   -2.3350   31.9840 C   0  0  0  0  0  0  0  0  0  0  0  0
   -2.0920   -1.7360   21.0890 C   0  0  0  0  0  0  0  0  0  0  0  0
   -1.6440    0.2260   22.6970 C   0  0  0  0  0  0  0  0  0  0  0  0
   -3.6840   -3.8920   31.4860 C   0  0  0  0  0  0  0  0  0  0  0  0
   -5.1970    0.8110   16.0660 C   0  0  0  0  0  0  0  0  0  0  0  0
   -3.8760    1.3600   18.4250 C   0  0  0  0  0  0  0  0  0  0  0  0
   -1.3700   -1.2650   27.1320 C   0  0  0  0  0  0  0  0  0  0  0  0
   -1.1390   -1.6720   24.8540 C   0  0  0  0  0  0  0  0  0  0  0  0
   -5.1530    0.8710   18.3680 C   0  0  0  0  0  0  0  0  0  0  0  0
   -1.9240   -1.2560   28.5060 C   0  0  0  0  0  0  0  0  0  0  0  0
   -2.2000    1.0350   21.6110 C   0  0  0  0  0  0  0  0  0  0  0  0
   -0.2310   -0.6320   27.1240 C   0  0  0  0  0  0  0  0  0  0  0  0
    0.1860   -0.9190   24.9690 C   0  0  0  0  0  0  0  0  0  0  0  0
   -3.2220    1.5840   19.7610 C   0  0  0  0  0  0  0  0  0  0  0  0
   -5.0400   -4.5980   31.4630 C   0  0  0  0  0  0  0  0  0  0  0  0
   -1.6310   -2.2060   23.4880 C   0  0  0  0  0  0  0  0  0  0  0  0
   -3.1870   -1.8730   29.0110 C   0  0  0  0  0  0  0  0  0  0  0  0
   -3.6340   -1.6020   30.4450 C   0  0  0  0  0  0  0  0  0  0  0  0
   -5.7360    0.3790   14.9510 F   0  0  0  0  0  0  0  0  0  0  0  0
   -5.7910    0.5110   19.5240 F   0  0  0  0  0  0  0  0  0  0  0  0
    2.6468   -0.0154   22.9186 H   0  0  0  0  0  0  0  0  0  0  0  0
    1.9961    0.9750   24.2684 H   0  0  0  0  0  0  0  0  0  0  0  0
    2.8516   -0.5659   24.6160 H   0  0  0  0  0  0  0  0  0  0  0  0
   -3.4410    1.6048   15.1122 H   0  0  0  0  0  0  0  0  0  0  0  0
   -2.2245    2.1720   17.1659 H   0  0  0  0  0  0  0  0  0  0  0  0
   -6.8507    0.0993   17.1767 H   0  0  0  0  0  0  0  0  0  0  0  0
   -2.9205   -2.2930   25.8770 H   0  0  0  0  0  0  0  0  0  0  0  0
   -1.0944   -0.3640   30.2979 H   0  0  0  0  0  0  0  0  0  0  0  0
   -1.5676    3.0391   22.1295 H   0  0  0  0  0  0  0  0  0  0  0  0
   -5.6911   -3.9737   33.4608 H   0  0  0  0  0  0  0  0  0  0  0  0
   -6.9735   -3.9373   32.2568 H   0  0  0  0  0  0  0  0  0  0  0  0
   -3.3012   -1.1539   19.3620 H   0  0  0  0  0  0  0  0  0  0  0  0
   -4.1899   -1.1435   20.9127 H   0  0  0  0  0  0  0  0  0  0  0  0
   -6.2197   -1.8497   31.3476 H   0  0  0  0  0  0  0  0  0  0  0  0
   -5.3118   -1.6836   32.8570 H   0  0  0  0  0  0  0  0  0  0  0  0
   -2.3661   -2.8000   21.1410 H   0  0  0  0  0  0  0  0  0  0  0  0
   -1.1632   -1.6454   20.5066 H   0  0  0  0  0  0  0  0  0  0  0  0
   -0.5570    0.3865   22.7490 H   0  0  0  0  0  0  0  0  0  0  0  0
   -2.1089    0.5263   23.6476 H   0  0  0  0  0  0  0  0  0  0  0  0
   -3.1285   -4.0027   32.4290 H   0  0  0  0  0  0  0  0  0  0  0  0
   -2.9770   -4.2380   30.7176 H   0  0  0  0  0  0  0  0  0  0  0  0
   -4.9909   -5.6465   31.7919 H   0  0  0  0  0  0  0  0  0  0  0  0
    0.8291    0.2987   28.6698 H   0  0  0  0  0  0  0  0  0  0  0  0
   -4.9841   -5.2281   29.6079 H   0  0  0  0  0  0  0  0  0  0  0  0
  1 15  1  0  0  0  0
  1 41  1  0  0  0  0
  1 42  1  0  0  0  0
  1 43  1  0  0  0  0
  2 63  1  0  0  0  0
  3 64  1  0  0  0  0
  4  7  4  0  0  0  0
  4 25  4  0  0  0  0
  4 44  1  0  0  0  0
  7 26  4  0  0  0  0
  7 45  1  0  0  0  0
 10 25  4  0  0  0  0
 10 29  4  0  0  0  0
 10 46  1  0  0  0  0
 13 27  4  0  0  0  0
 13 28  4  0  0  0  0
 13 47  1  0  0  0  0
  2 16  1  0  0  0  0
 16 30  2  0  0  0  0
 16 48  1  0  0  0  0
  5 18  1  0  0  0  0
 18 31  2  0  0  0  0
 18 49  1  0  0  0  0
 19 21  1  0  0  0  0
 19 35  1  0  0  0  0
 19 50  1  0  0  0  0
 19 51  1  0  0  0  0
 11 20  1  0  0  0  0
 20 22  1  0  0  0  0
 20 52  1  0  0  0  0
 20 53  1  0  0  0  0
 17 21  1  0  0  0  0
 21 54  1  0  0  0  0
 21 55  1  0  0  0  0
 14 22  1  0  0  0  0
 22 56  1  0  0  0  0
 22 57  1  0  0  0  0
 14 23  1  0  0  0  0
 23 31  1  0  0  0  0
 23 58  1  0  0  0  0
 23 59  1  0  0  0  0
 17 24  1  0  0  0  0
 24 35  1  0  0  0  0
 24 60  1  0  0  0  0
 24 61  1  0  0  0  0
 25 39  1  0  0  0  0
 26 29  4  0  0  0  0
 26 34  1  0  0  0  0
 27 30  1  0  0  0  0
 27 32  4  0  0  0  0
 28 33  4  0  0  0  0
 28 36  1  0  0  0  0
 29 40  1  0  0  0  0
 30 37  1  0  0  0  0
 11 31  1  0  0  0  0
  2 32  1  0  0  0  0
  8 32  4  0  0  0  0
  8 33  4  0  0  0  0
 15 33  1  0  0  0  0
  5 34  2  0  0  0  0
 11 34  1  0  0  0  0
  3 35  1  0  0  0  0
 35 62  1  0  0  0  0
  6 36  2  0  0  0  0
 14 36  1  0  0  0  0
  9 37  2  0  0  0  0
 37 38  1  0  0  0  0
 12 38  2  0  0  0  0
 17 38  1  0  0  0  0
M  END
$$$$
