VIA
  PyMOL2.6          3D                             0

 33 36  0  0  0  0  0  0  0  0999 V2000
   -0.1320   61.4670   80.1200 C   0  0  0  0  0  0  0  0  0  0  0  0
   -1.7980   62.2800   84.3700 N   0  0  0  0  0  0  0  0  0  0  0  0
    0.1800   64.4220   87.5490 O   0  0  0  0  0  0  0  0  0  0  0  0
    2.0230   69.8310   81.5610 S   0  0  0  0  0  0  0  0  0  0  0  0
   -0.1690   61.7920   81.5890 C   0  0  0  0  0  0  0  0  0  0  0  0
   -1.4140   62.6960   85.6120 N   0  0  0  0  0  0  0  0  0  0  0  0
    4.0190   65.8300   85.6200 O   0  0  0  0  0  0  0  0  0  0  0  0
   -1.2610   62.8640   81.9270 C   0  0  0  0  0  0  0  0  0  0  0  0
    1.1250   65.4740   85.8160 N   0  0  0  0  0  0  0  0  0  0  0  0
    2.3130   69.6000   80.2940 O   0  0  0  0  0  0  0  0  0  0  0  0
   -1.1140   63.0310   83.4050 C   0  0  0  0  0  0  0  0  0  0  0  0
    0.5970   64.9070   83.5200 N   0  0  0  0  0  0  0  0  0  0  0  0
    0.7120   69.8610   81.6110 O   0  0  0  0  0  0  0  0  0  0  0  0
   -1.9480   62.1110   86.8450 C   0  0  0  0  0  0  0  0  0  0  0  0
    2.6900   71.1590   82.1270 N   0  0  0  0  0  0  0  0  0  0  0  0
   -0.4950   63.7000   85.4400 C   0  0  0  0  0  0  0  0  0  0  0  0
    1.4260   73.6860   80.9560 N   0  0  0  0  0  0  0  0  0  0  0  0
    0.2600   64.5190   86.3460 C   0  0  0  0  0  0  0  0  0  0  0  0
    1.3080   65.6840   84.4420 C   0  0  0  0  0  0  0  0  0  0  0  0
   -0.2930   63.9280   84.0460 C   0  0  0  0  0  0  0  0  0  0  0  0
    2.2230   66.7020   84.0580 C   0  0  0  0  0  0  0  0  0  0  0  0
    1.7310   67.6550   83.0840 C   0  0  0  0  0  0  0  0  0  0  0  0
    2.5680   68.7580   82.6170 C   0  0  0  0  0  0  0  0  0  0  0  0
    3.9520   68.8600   83.1800 C   0  0  0  0  0  0  0  0  0  0  0  0
    4.4660   67.9110   84.1620 C   0  0  0  0  0  0  0  0  0  0  0  0
    3.6090   66.8060   84.6330 C   0  0  0  0  0  0  0  0  0  0  0  0
    5.3040   65.8030   86.2730 C   0  0  0  0  0  0  0  0  0  0  0  0
    5.2340   64.6230   87.2280 C   0  0  0  0  0  0  0  0  0  0  0  0
    1.7240   72.0870   82.9630 C   0  0  0  0  0  0  0  0  0  0  0  0
    0.8200   73.0570   82.1780 C   0  0  0  0  0  0  0  0  0  0  0  0
    1.5570   75.1560   81.2010 C   0  0  0  0  0  0  0  0  0  0  0  0
    2.7520   73.1450   80.4160 C   0  0  0  0  0  0  0  0  0  0  0  0
    3.5390   72.0920   81.2850 C   0  0  0  0  0  0  0  0  0  0  0  0
  1  5  1  0  0  0  0
  2  6  1  0  0  0  0
  4 10  2  0  0  0  0
  4 13  2  0  0  0  0
  4 15  1  0  0  0  0
  5  8  1  0  0  0  0
  6 14  1  0  0  0  0
  6 16  1  0  0  0  0
  7 27  1  0  0  0  0
  8 11  1  0  0  0  0
  9 19  1  0  0  0  0
  2 11  2  0  0  0  0
 11 20  1  0  0  0  0
 12 20  1  0  0  0  0
 15 29  1  0  0  0  0
 15 33  1  0  0  0  0
 16 18  1  0  0  0  0
 16 20  2  0  0  0  0
 17 31  1  0  0  0  0
 17 32  1  0  0  0  0
  3 18  2  0  0  0  0
  9 18  1  0  0  0  0
 12 19  2  0  0  0  0
 19 21  1  0  0  0  0
 21 22  4  0  0  0  0
 21 26  4  0  0  0  0
 22 23  4  0  0  0  0
  4 23  1  0  0  0  0
 23 24  4  0  0  0  0
 24 25  4  0  0  0  0
 25 26  4  0  0  0  0
  7 26  1  0  0  0  0
 27 28  1  0  0  0  0
 29 30  2  0  0  0  0
 17 30  1  0  0  0  0
 32 33  2  0  0  0  0
M  END
$$$$
