OHT_101_2FSZ
  PyMOL2.6          3D                             0

 61 63  0  0  0  0  0  0  0  0999 V2000
   89.6910   19.2370   -4.3800 C   0  0  0  0  0  0  0  0  0  0  0  0
  101.0410   22.9250   -1.9320 N   0  3  0  0  0  0  0  0  0  0  0  0
   91.2640   25.4910   -7.4560 O   0  0  0  0  0  0  0  0  0  0  0  0
  102.5000   23.0940   -1.9470 C   0  0  0  0  0  0  0  0  0  0  0  0
   98.4540   20.7210   -2.6800 O   0  0  0  0  0  0  0  0  0  0  0  0
  100.5650   23.2800   -0.5870 C   0  0  0  0  0  0  0  0  0  0  0  0
   93.6950   15.7920   -2.3760 C   0  0  0  0  0  0  0  0  0  0  0  0
   93.6490   15.6680   -3.8290 C   0  0  0  0  0  0  0  0  0  0  0  0
   93.2920   17.0110   -1.7020 C   0  0  0  0  0  0  0  0  0  0  0  0
   93.1880   16.7920   -4.6410 C   0  0  0  0  0  0  0  0  0  0  0  0
   92.8320   18.1300   -2.4980 C   0  0  0  0  0  0  0  0  0  0  0  0
   91.3280   22.5500   -5.2170 C   0  0  0  0  0  0  0  0  0  0  0  0
   93.2970   22.4480   -6.7360 C   0  0  0  0  0  0  0  0  0  0  0  0
   94.7010   21.4750   -3.1540 C   0  0  0  0  0  0  0  0  0  0  0  0
   95.5500   19.8080   -4.8700 C   0  0  0  0  0  0  0  0  0  0  0  0
   90.8880   23.7710   -5.8200 C   0  0  0  0  0  0  0  0  0  0  0  0
   92.8740   23.6790   -7.3610 C   0  0  0  0  0  0  0  0  0  0  0  0
   96.0320   21.5500   -2.5880 C   0  0  0  0  0  0  0  0  0  0  0  0
   96.8760   19.8880   -4.2990 C   0  0  0  0  0  0  0  0  0  0  0  0
   90.8600   18.8850   -5.3160 C   0  0  0  0  0  0  0  0  0  0  0  0
  100.7040   21.5400   -2.3110 C   0  0  0  0  0  0  0  0  0  0  0  0
   99.4570   21.5750   -3.2030 C   0  0  0  0  0  0  0  0  0  0  0  0
   92.7730   18.0360   -3.9710 C   0  0  0  0  0  0  0  0  0  0  0  0
   92.5340   21.8270   -5.6290 C   0  0  0  0  0  0  0  0  0  0  0  0
   94.4400   20.5940   -4.3110 C   0  0  0  0  0  0  0  0  0  0  0  0
   91.6690   24.3250   -6.8820 C   0  0  0  0  0  0  0  0  0  0  0  0
   97.1290   20.7390   -3.1710 C   0  0  0  0  0  0  0  0  0  0  0  0
   92.2720   19.2380   -4.7570 C   0  0  0  0  0  0  0  0  0  0  0  0
   93.0120   20.4990   -4.9110 C   0  0  0  0  0  0  0  0  0  0  0  0
   88.7410   18.9533   -4.8564 H   0  0  0  0  0  0  0  0  0  0  0  0
   89.8032   18.6905   -3.4320 H   0  0  0  0  0  0  0  0  0  0  0  0
   89.6930   20.3190   -4.1821 H   0  0  0  0  0  0  0  0  0  0  0  0
  102.8894   22.8356   -2.9428 H   0  0  0  0  0  0  0  0  0  0  0  0
  102.7502   24.1399   -1.7158 H   0  0  0  0  0  0  0  0  0  0  0  0
  102.9533   22.4332   -1.1934 H   0  0  0  0  0  0  0  0  0  0  0  0
   99.4721   23.1638   -0.5417 H   0  0  0  0  0  0  0  0  0  0  0  0
  101.0350   22.6176    0.1548 H   0  0  0  0  0  0  0  0  0  0  0  0
  100.8319   24.3243   -0.3675 H   0  0  0  0  0  0  0  0  0  0  0  0
   94.0381   14.9542   -1.7872 H   0  0  0  0  0  0  0  0  0  0  0  0
   93.9551   14.7473   -4.3034 H   0  0  0  0  0  0  0  0  0  0  0  0
   93.3341   17.0832   -0.6252 H   0  0  0  0  0  0  0  0  0  0  0  0
   93.1521   16.7115   -5.7174 H   0  0  0  0  0  0  0  0  0  0  0  0
   92.5286   19.0439   -2.0090 H   0  0  0  0  0  0  0  0  0  0  0  0
   90.7373   22.1379   -4.4122 H   0  0  0  0  0  0  0  0  0  0  0  0
   94.1973   21.9654   -7.0865 H   0  0  0  0  0  0  0  0  0  0  0  0
   93.8998   22.0626   -2.7306 H   0  0  0  0  0  0  0  0  0  0  0  0
   95.3726   19.1628   -5.7177 H   0  0  0  0  0  0  0  0  0  0  0  0
   89.9878   24.2622   -5.4811 H   0  0  0  0  0  0  0  0  0  0  0  0
   93.4450   24.1099   -8.1701 H   0  0  0  0  0  0  0  0  0  0  0  0
   96.2255   22.1948   -1.7435 H   0  0  0  0  0  0  0  0  0  0  0  0
   97.6799   19.3047   -4.7232 H   0  0  0  0  0  0  0  0  0  0  0  0
   90.8316   17.8000   -5.4948 H   0  0  0  0  0  0  0  0  0  0  0  0
   90.7203   19.4450   -6.2524 H   0  0  0  0  0  0  0  0  0  0  0  0
  100.5016   20.9442   -1.4087 H   0  0  0  0  0  0  0  0  0  0  0  0
  101.5434   21.0878   -2.8595 H   0  0  0  0  0  0  0  0  0  0  0  0
   99.0705   22.6040   -3.2440 H   0  0  0  0  0  0  0  0  0  0  0  0
   99.7267   21.2387   -4.2150 H   0  0  0  0  0  0  0  0  0  0  0  0
   92.7107   20.1941   -5.0786 H   0  0  0  0  0  0  0  0  0  0  0  0
   92.0254   20.1376   -5.2367 H   0  0  0  0  0  0  0  0  0  0  0  0
  100.5893   23.5216   -2.5953 H   0  0  0  0  0  0  0  0  0  0  0  0
   91.8748   25.7362   -8.1410 H   0  0  0  0  0  0  0  0  0  0  0  0
  1 20  1  0  0  0  0
  1 30  1  0  0  0  0
  1 31  1  0  0  0  0
  1 32  1  0  0  0  0
  2 60  1  0  0  0  0
  3 61  1  0  0  0  0
  2  4  1  0  0  0  0
  4 33  1  0  0  0  0
  4 34  1  0  0  0  0
  4 35  1  0  0  0  0
  2  6  1  0  0  0  0
  6 36  1  0  0  0  0
  6 37  1  0  0  0  0
  6 38  1  0  0  0  0
  7  8  4  0  0  0  0
  7  9  4  0  0  0  0
  7 39  1  0  0  0  0
  8 10  4  0  0  0  0
  8 40  1  0  0  0  0
  9 11  4  0  0  0  0
  9 41  1  0  0  0  0
 10 23  4  0  0  0  0
 10 42  1  0  0  0  0
 11 23  4  0  0  0  0
 11 43  1  0  0  0  0
 12 16  4  0  0  0  0
 12 24  4  0  0  0  0
 12 44  1  0  0  0  0
 13 17  4  0  0  0  0
 13 24  4  0  0  0  0
 13 45  1  0  0  0  0
 14 18  4  0  0  0  0
 14 25  4  0  0  0  0
 14 46  1  0  0  0  0
 15 19  4  0  0  0  0
 15 25  4  0  0  0  0
 15 47  1  0  0  0  0
 16 26  4  0  0  0  0
 16 48  1  0  0  0  0
 17 26  4  0  0  0  0
 17 49  1  0  0  0  0
 18 27  4  0  0  0  0
 18 50  1  0  0  0  0
 19 27  4  0  0  0  0
 19 51  1  0  0  0  0
 20 28  1  0  0  0  0
 20 52  1  0  0  0  0
 20 53  1  0  0  0  0
  2 21  1  0  0  0  0
 21 22  1  0  0  0  0
 21 54  1  0  0  0  0
 21 55  1  0  0  0  0
  5 22  1  0  0  0  0
 22 56  1  0  0  0  0
 22 57  1  0  0  0  0
 23 28  1  0  0  0  0
 24 29  1  0  0  0  0
 25 29  1  0  0  0  0
  3 26  1  0  0  0  0
  5 27  1  0  0  0  0
 28 29  1  0  0  0  0
 28 58  1  0  0  0  0
 29 59  1  0  0  0  0
M  END
$$$$
