283_1_2OI0
  PyMOL2.6          3D                             0

 37 38  0  0  0  0  0  0  0  0999 V2000
   48.5850   23.9670    3.0390 C   0  0  0  0  0  0  0  0  0  0  0  0
   42.2240   31.0160    0.7550 N   0  0  0  0  0  0  0  0  0  0  0  0
   42.9950   28.7670   -0.4940 O   0  0  0  0  0  0  0  0  0  0  0  0
   41.1580   31.9760    4.5860 S   0  0  0  0  0  0  0  0  0  0  0  0
   46.0850   28.4790    2.5260 C   0  0  0  0  0  0  0  0  0  0  0  0
   41.1530   28.7870    1.1990 O   0  0  0  0  0  0  0  0  0  0  0  0
   42.4650   29.2650    0.7610 S   0  0  0  0  0  0  0  0  0  0  0  0
   44.3110   28.1830    4.1440 C   0  0  0  0  0  0  0  0  0  0  0  0
   46.4720   27.8170    4.9230 O   0  0  0  0  0  0  0  0  0  0  0  0
   45.1140   28.8150    1.5370 C   0  0  0  0  0  0  0  0  0  0  0  0
   43.3680   28.5170    3.1750 C   0  0  0  0  0  0  0  0  0  0  0  0
   40.2900   31.9010    1.7620 C   0  0  0  0  0  0  0  0  0  0  0  0
   40.8840   31.5860    0.4110 C   0  0  0  0  0  0  0  0  0  0  0  0
   42.4910   31.6260    2.0950 C   0  0  0  0  0  0  0  0  0  0  0  0
   47.9140   27.7740    4.7600 C   0  0  0  0  0  0  0  0  0  0  0  0
   48.4120   25.3010    3.6900 C   0  0  0  0  0  0  0  0  0  0  0  0
   48.2690   26.3640    4.1920 C   0  0  0  0  0  0  0  0  0  0  0  0
   45.6660   28.1620    3.8390 C   0  0  0  0  0  0  0  0  0  0  0  0
   43.7530   28.8330    1.8840 C   0  0  0  0  0  0  0  0  0  0  0  0
   41.2000   31.4320    2.8880 C   0  0  0  0  0  0  0  0  0  0  0  0
   49.0066   23.2561    3.7649 H   0  0  0  0  0  0  0  0  0  0  0  0
   47.6083   23.5996    2.6910 H   0  0  0  0  0  0  0  0  0  0  0  0
   49.2674   24.0633    2.1816 H   0  0  0  0  0  0  0  0  0  0  0  0
   47.1350   28.4667    2.2735 H   0  0  0  0  0  0  0  0  0  0  0  0
   43.9850   27.9375    5.1439 H   0  0  0  0  0  0  0  0  0  0  0  0
   45.4225   29.0536    0.5299 H   0  0  0  0  0  0  0  0  0  0  0  0
   42.3199   28.5296    3.4353 H   0  0  0  0  0  0  0  0  0  0  0  0
   40.1525   32.9892    1.8454 H   0  0  0  0  0  0  0  0  0  0  0  0
   39.3200   31.3902    1.8522 H   0  0  0  0  0  0  0  0  0  0  0  0
   40.2670   30.8654   -0.1458 H   0  0  0  0  0  0  0  0  0  0  0  0
   40.9742   32.4873   -0.2131 H   0  0  0  0  0  0  0  0  0  0  0  0
   42.7359   32.6940    1.9986 H   0  0  0  0  0  0  0  0  0  0  0  0
   43.3360   31.1273    2.5922 H   0  0  0  0  0  0  0  0  0  0  0  0
   48.4120   27.9315    5.7281 H   0  0  0  0  0  0  0  0  0  0  0  0
   48.2426   28.5594    4.0635 H   0  0  0  0  0  0  0  0  0  0  0  0
   40.9043   30.4533    3.2939 H   0  0  0  0  0  0  0  0  0  0  0  0
   42.1211   31.2821    5.1160 H   0  0  0  0  0  0  0  0  0  0  0  0
  1 16  1  0  0  0  0
  1 21  1  0  0  0  0
  1 22  1  0  0  0  0
  1 23  1  0  0  0  0
  2  7  1  0  0  0  0
  3  7  2  0  0  0  0
  4 37  1  0  0  0  0
  5 10  4  0  0  0  0
  5 18  4  0  0  0  0
  5 24  1  0  0  0  0
  6  7  2  0  0  0  0
  8 11  4  0  0  0  0
  8 18  4  0  0  0  0
  8 25  1  0  0  0  0
 10 19  4  0  0  0  0
 10 26  1  0  0  0  0
 11 19  4  0  0  0  0
 11 27  1  0  0  0  0
 12 13  1  0  0  0  0
 12 20  1  0  0  0  0
 12 28  1  0  0  0  0
 12 29  1  0  0  0  0
  2 13  1  0  0  0  0
 13 30  1  0  0  0  0
 13 31  1  0  0  0  0
  2 14  1  0  0  0  0
 14 20  1  0  0  0  0
 14 32  1  0  0  0  0
 14 33  1  0  0  0  0
  9 15  1  0  0  0  0
 15 17  1  0  0  0  0
 15 34  1  0  0  0  0
 15 35  1  0  0  0  0
 16 17  3  0  0  0  0
  9 18  1  0  0  0  0
  7 19  1  0  0  0  0
  4 20  1  0  0  0  0
 20 36  1  0  0  0  0
M  END
$$$$
