KAW_800_3BKL
  PyMOL2.6          3D                             0

 69 72  0  0  0  0  0  0  0  0999 V2000
   48.6220   45.0350   51.7870 C   0  0  0  0  0  0  0  0  0  0  0  0
   44.6900   49.2040   38.2820 N   0  0  0  0  0  0  0  0  0  0  0  0
   45.1310   44.8520   45.6130 O   0  0  0  0  0  0  0  0  0  0  0  0
   43.5040   39.7850   50.2690 C   0  0  0  0  0  0  0  0  0  0  0  0
   45.6760   47.1780   42.4880 N   0  0  0  0  0  0  0  0  0  0  0  0
   43.2970   45.7300   46.7390 O   0  0  0  0  0  0  0  0  0  0  0  0
   48.2660   46.3090   51.3850 C   0  0  0  0  0  0  0  0  0  0  0  0
   45.0470   44.1520   48.4000 N   0  0  0  0  0  0  0  0  0  0  0  0
   46.9890   49.3890   41.7800 O   0  5  0  0  0  0  0  0  0  0  0  0
   48.4170   43.9670   50.9330 C   0  0  0  0  0  0  0  0  0  0  0  0
   46.9960   47.2770   44.2980 O   0  0  0  0  0  0  0  0  0  0  0  0
   42.8970   40.7720   51.0230 C   0  0  0  0  0  0  0  0  0  0  0  0
   43.2210   44.7820   49.5600 O   0  0  0  0  0  0  0  0  0  0  0  0
   44.2790   40.1280   49.1770 C   0  0  0  0  0  0  0  0  0  0  0  0
   48.7380   48.3000   40.9940 O   0  0  0  0  0  0  0  0  0  0  0  0
   41.7690   46.5420   39.3440 C   0  0  0  0  0  0  0  0  0  0  0  0
   41.3680   47.6450   38.5800 C   0  0  0  0  0  0  0  0  0  0  0  0
   47.7080   46.5100   50.1360 C   0  0  0  0  0  0  0  0  0  0  0  0
   47.8590   44.1770   49.6860 C   0  0  0  0  0  0  0  0  0  0  0  0
   43.0610   42.1030   50.6870 C   0  0  0  0  0  0  0  0  0  0  0  0
   44.4470   41.4580   48.8390 C   0  0  0  0  0  0  0  0  0  0  0  0
   43.0900   46.3710   39.7150 C   0  0  0  0  0  0  0  0  0  0  0  0
   42.2600   48.5980   38.1680 C   0  0  0  0  0  0  0  0  0  0  0  0
   45.7960   48.6270   38.8600 C   0  0  0  0  0  0  0  0  0  0  0  0
   44.6390   47.4650   44.6780 C   0  0  0  0  0  0  0  0  0  0  0  0
   45.0680   47.2310   46.1390 C   0  0  0  0  0  0  0  0  0  0  0  0
   46.8750   45.6680   47.9210 C   0  0  0  0  0  0  0  0  0  0  0  0
   46.3430   46.5210   40.2200 C   0  0  0  0  0  0  0  0  0  0  0  0
   47.4990   45.4480   49.2710 C   0  0  0  0  0  0  0  0  0  0  0  0
   43.8360   42.4450   49.5920 C   0  0  0  0  0  0  0  0  0  0  0  0
   44.0270   47.3280   39.3110 C   0  0  0  0  0  0  0  0  0  0  0  0
   43.5930   48.4270   38.5420 C   0  0  0  0  0  0  0  0  0  0  0  0
   45.4400   47.4740   39.4980 C   0  0  0  0  0  0  0  0  0  0  0  0
   46.8120   47.0180   41.5880 C   0  0  0  0  0  0  0  0  0  0  0  0
   45.3540   45.5030   47.9470 C   0  0  0  0  0  0  0  0  0  0  0  0
   45.8720   47.2920   43.7970 C   0  0  0  0  0  0  0  0  0  0  0  0
   44.0130   43.9120   49.1980 C   0  0  0  0  0  0  0  0  0  0  0  0
   47.5730   48.3370   41.4420 C   0  0  0  0  0  0  0  0  0  0  0  0
   44.7160   45.8110   46.5900 C   0  0  0  0  0  0  0  0  0  0  0  0
   49.0576   44.8749   52.7622 H   0  0  0  0  0  0  0  0  0  0  0  0
   43.3727   38.7461   50.5331 H   0  0  0  0  0  0  0  0  0  0  0  0
   48.4238   47.1477   52.0469 H   0  0  0  0  0  0  0  0  0  0  0  0
   48.6928   42.9690   51.2402 H   0  0  0  0  0  0  0  0  0  0  0  0
   42.2930   40.5026   51.8768 H   0  0  0  0  0  0  0  0  0  0  0  0
   44.7533   39.3570   48.5879 H   0  0  0  0  0  0  0  0  0  0  0  0
   41.0336   45.8121   39.6488 H   0  0  0  0  0  0  0  0  0  0  0  0
   40.3276   47.7464   38.3087 H   0  0  0  0  0  0  0  0  0  0  0  0
   47.4313   47.5083   49.8305 H   0  0  0  0  0  0  0  0  0  0  0  0
   47.7014   43.3372   49.0255 H   0  0  0  0  0  0  0  0  0  0  0  0
   42.5862   42.8732   51.2767 H   0  0  0  0  0  0  0  0  0  0  0  0
   45.0549   41.7264   47.9876 H   0  0  0  0  0  0  0  0  0  0  0  0
   43.3918   45.5174   40.3037 H   0  0  0  0  0  0  0  0  0  0  0  0
   41.9452   49.4463   37.5784 H   0  0  0  0  0  0  0  0  0  0  0  0
   46.7983   49.0269   38.8158 H   0  0  0  0  0  0  0  0  0  0  0  0
   43.8657   46.7372   44.3911 H   0  0  0  0  0  0  0  0  0  0  0  0
   44.2328   48.4807   44.5625 H   0  0  0  0  0  0  0  0  0  0  0  0
   46.1557   47.3734   46.2202 H   0  0  0  0  0  0  0  0  0  0  0  0
   44.5462   47.9519   46.7855 H   0  0  0  0  0  0  0  0  0  0  0  0
   47.1095   46.6907   47.5906 H   0  0  0  0  0  0  0  0  0  0  0  0
   47.2939   44.9322   47.2188 H   0  0  0  0  0  0  0  0  0  0  0  0
   45.7920   45.5811   40.3717 H   0  0  0  0  0  0  0  0  0  0  0  0
   47.2335   46.3586   39.5950 H   0  0  0  0  0  0  0  0  0  0  0  0
   47.4928   46.2694   42.0194 H   0  0  0  0  0  0  0  0  0  0  0  0
   44.9210   46.2327   48.6470 H   0  0  0  0  0  0  0  0  0  0  0  0
   44.6872   50.0546   37.7561 H   0  0  0  0  0  0  0  0  0  0  0  0
   44.7469   47.2020   42.1189 H   0  0  0  0  0  0  0  0  0  0  0  0
   45.6257   43.3919   48.1044 H   0  0  0  0  0  0  0  0  0  0  0  0
   44.9045   43.9785   45.9099 H   0  0  0  0  0  0  0  0  0  0  0  0
   43.0868   45.4312   47.6159 H   0  0  0  0  0  0  0  0  0  0  0  0
  1  7  4  0  0  0  0
  1 10  4  0  0  0  0
  1 40  1  0  0  0  0
  2 65  1  0  0  0  0
  3 68  1  0  0  0  0
  4 12  4  0  0  0  0
  4 14  4  0  0  0  0
  4 41  1  0  0  0  0
  5 66  1  0  0  0  0
  6 69  1  0  0  0  0
  7 18  4  0  0  0  0
  7 42  1  0  0  0  0
  8 67  1  0  0  0  0
 10 19  4  0  0  0  0
 10 43  1  0  0  0  0
 12 20  4  0  0  0  0
 12 44  1  0  0  0  0
 14 21  4  0  0  0  0
 14 45  1  0  0  0  0
 16 17  4  0  0  0  0
 16 22  4  0  0  0  0
 16 46  1  0  0  0  0
 17 23  4  0  0  0  0
 17 47  1  0  0  0  0
 18 29  4  0  0  0  0
 18 48  1  0  0  0  0
 19 29  4  0  0  0  0
 19 49  1  0  0  0  0
 20 30  4  0  0  0  0
 20 50  1  0  0  0  0
 21 30  4  0  0  0  0
 21 51  1  0  0  0  0
 22 31  4  0  0  0  0
 22 52  1  0  0  0  0
 23 32  4  0  0  0  0
 23 53  1  0  0  0  0
  2 24  1  0  0  0  0
 24 33  2  0  0  0  0
 24 54  1  0  0  0  0
 25 26  1  0  0  0  0
 25 36  1  0  0  0  0
 25 55  1  0  0  0  0
 25 56  1  0  0  0  0
 26 39  1  0  0  0  0
 26 57  1  0  0  0  0
 26 58  1  0  0  0  0
 27 29  1  0  0  0  0
 27 35  1  0  0  0  0
 27 59  1  0  0  0  0
 27 60  1  0  0  0  0
 28 33  1  0  0  0  0
 28 34  1  0  0  0  0
 28 61  1  0  0  0  0
 28 62  1  0  0  0  0
 30 37  1  0  0  0  0
 31 32  4  0  0  0  0
 31 33  1  0  0  0  0
  2 32  1  0  0  0  0
  5 34  1  0  0  0  0
 34 38  1  0  0  0  0
 34 63  1  0  0  0  0
  8 35  1  0  0  0  0
 35 39  1  0  0  0  0
 35 64  1  0  0  0  0
  5 36  1  0  0  0  0
 11 36  2  0  0  0  0
  8 37  1  0  0  0  0
 13 37  2  0  0  0  0
  9 38  1  0  0  0  0
 15 38  2  0  0  0  0
  3 39  1  0  0  0  0
  6 39  1  0  0  0  0
M  END
$$$$
