A49_2_3FRJ
  PyMOL2.6          3D                             0

 63 66  0  0  0  0  0  0  0  0999 V2000
   51.1960   28.7570   41.8220 C   0  0  0  0  0  0  0  0  0  0  0  0
   59.3770   20.2780   36.0440 N   0  0  0  0  0  0  0  0  0  0  0  0
   50.2980   28.1090   39.6560 O   0  0  0  0  0  0  0  0  0  0  0  0
   52.9240   24.8110   41.9710 C   0  0  0  0  0  0  0  0  0  0  0  0
   55.8860   22.3040   37.6130 N   0  3  0  0  0  0  0  0  0  0  0  0
   51.7910   21.9030   42.3650 O   0  0  0  0  0  0  0  0  0  0  0  0
   51.2960   24.2710   40.2450 C   0  0  0  0  0  0  0  0  0  0  0  0
   52.9150   21.5410   40.3940 N   0  0  0  0  0  0  0  0  0  0  0  0
   57.1950   20.1160   36.2450 O   0  0  0  0  0  0  0  0  0  0  0  0
   52.6730   26.1780   41.8010 C   0  0  0  0  0  0  0  0  0  0  0  0
   51.0700   25.6070   40.0220 C   0  0  0  0  0  0  0  0  0  0  0  0
   51.6250   19.4380   40.6940 C   0  0  0  0  0  0  0  0  0  0  0  0
   52.4630   19.3090   39.4500 C   0  0  0  0  0  0  0  0  0  0  0  0
   55.4050   21.5740   39.8900 C   0  0  0  0  0  0  0  0  0  0  0  0
   53.5290   22.2980   38.2300 C   0  0  0  0  0  0  0  0  0  0  0  0
   59.2820   22.7800   37.5660 C   0  0  0  0  0  0  0  0  0  0  0  0
   59.2390   23.1320   36.0720 C   0  0  0  0  0  0  0  0  0  0  0  0
   56.3290   22.4580   39.0600 C   0  0  0  0  0  0  0  0  0  0  0  0
   54.5880   22.9870   37.4150 C   0  0  0  0  0  0  0  0  0  0  0  0
   56.8350   22.9540   36.6890 C   0  0  0  0  0  0  0  0  0  0  0  0
   52.2460   23.8730   41.2080 C   0  0  0  0  0  0  0  0  0  0  0  0
   51.7470   26.5500   40.7970 C   0  0  0  0  0  0  0  0  0  0  0  0
   53.0190   20.0620   40.6680 C   0  0  0  0  0  0  0  0  0  0  0  0
   54.0110   22.1900   39.7100 C   0  0  0  0  0  0  0  0  0  0  0  0
   52.3750   22.3910   41.3980 C   0  0  0  0  0  0  0  0  0  0  0  0
   58.2160   20.8010   36.2770 C   0  0  0  0  0  0  0  0  0  0  0  0
   58.1660   22.2540   36.7020 C   0  0  0  0  0  0  0  0  0  0  0  0
   51.4450   27.9990   40.5240 C   0  0  0  0  0  0  0  0  0  0  0  0
   52.6110   28.5910   39.7540 C   0  0  0  0  0  0  0  0  0  0  0  0
   52.7430   27.9570   38.6110 F   0  0  0  0  0  0  0  0  0  0  0  0
   53.7740   28.5060   40.3860 F   0  0  0  0  0  0  0  0  0  0  0  0
   52.2250   29.8180   39.5700 F   0  0  0  0  0  0  0  0  0  0  0  0
   50.9780   29.8112   41.5956 H   0  0  0  0  0  0  0  0  0  0  0  0
   50.3396   28.3106   42.3486 H   0  0  0  0  0  0  0  0  0  0  0  0
   52.0906   28.6964   42.4592 H   0  0  0  0  0  0  0  0  0  0  0  0
   53.6503   24.4854   42.7010 H   0  0  0  0  0  0  0  0  0  0  0  0
   50.7481   23.5278   39.6848 H   0  0  0  0  0  0  0  0  0  0  0  0
   53.1665   26.9194   42.4119 H   0  0  0  0  0  0  0  0  0  0  0  0
   50.3772   25.9241   39.2566 H   0  0  0  0  0  0  0  0  0  0  0  0
   50.6389   19.9016   40.8446 H   0  0  0  0  0  0  0  0  0  0  0  0
   51.2021   18.6648   41.3522 H   0  0  0  0  0  0  0  0  0  0  0  0
   52.8366   18.4172   38.9255 H   0  0  0  0  0  0  0  0  0  0  0  0
   52.2762   19.6481   38.4204 H   0  0  0  0  0  0  0  0  0  0  0  0
   55.4270   20.5336   39.5335 H   0  0  0  0  0  0  0  0  0  0  0  0
   55.7037   21.5732   40.9487 H   0  0  0  0  0  0  0  0  0  0  0  0
   52.5957   22.8786   38.1879 H   0  0  0  0  0  0  0  0  0  0  0  0
   53.3505   21.2905   37.8261 H   0  0  0  0  0  0  0  0  0  0  0  0
   60.0430   22.2516   38.1591 H   0  0  0  0  0  0  0  0  0  0  0  0
   59.2593   23.4236   38.4578 H   0  0  0  0  0  0  0  0  0  0  0  0
   59.1761   24.1000   35.5533 H   0  0  0  0  0  0  0  0  0  0  0  0
   59.9525   22.9389   35.2573 H   0  0  0  0  0  0  0  0  0  0  0  0
   56.2465   23.5076   39.3785 H   0  0  0  0  0  0  0  0  0  0  0  0
   57.3753   22.1400   39.1785 H   0  0  0  0  0  0  0  0  0  0  0  0
   54.3131   22.9502   36.3505 H   0  0  0  0  0  0  0  0  0  0  0  0
   54.6730   24.0357   37.7359 H   0  0  0  0  0  0  0  0  0  0  0  0
   56.9779   23.9992   37.0005 H   0  0  0  0  0  0  0  0  0  0  0  0
   56.4226   22.9185   35.6699 H   0  0  0  0  0  0  0  0  0  0  0  0
   53.9136   20.0072   41.3057 H   0  0  0  0  0  0  0  0  0  0  0  0
   54.2107   23.1733   40.1609 H   0  0  0  0  0  0  0  0  0  0  0  0
   59.4533   19.3033   35.8341 H   0  0  0  0  0  0  0  0  0  0  0  0
   60.1976   20.8487   36.0739 H   0  0  0  0  0  0  0  0  0  0  0  0
   55.8299   21.3232   37.4260 H   0  0  0  0  0  0  0  0  0  0  0  0
   50.4632   27.6335   38.8503 H   0  0  0  0  0  0  0  0  0  0  0  0
  1 28  1  0  0  0  0
  1 33  1  0  0  0  0
  1 34  1  0  0  0  0
  1 35  1  0  0  0  0
  2 60  1  0  0  0  0
  2 61  1  0  0  0  0
  3 63  1  0  0  0  0
  4 10  4  0  0  0  0
  4 21  4  0  0  0  0
  4 36  1  0  0  0  0
  5 62  1  0  0  0  0
  7 11  4  0  0  0  0
  7 21  4  0  0  0  0
  7 37  1  0  0  0  0
 10 22  4  0  0  0  0
 10 38  1  0  0  0  0
 11 22  4  0  0  0  0
 11 39  1  0  0  0  0
 12 13  1  0  0  0  0
 12 23  1  0  0  0  0
 12 40  1  0  0  0  0
 12 41  1  0  0  0  0
 13 23  1  0  0  0  0
 13 42  1  0  0  0  0
 13 43  1  0  0  0  0
 14 18  1  0  0  0  0
 14 24  1  0  0  0  0
 14 44  1  0  0  0  0
 14 45  1  0  0  0  0
 15 19  1  0  0  0  0
 15 24  1  0  0  0  0
 15 46  1  0  0  0  0
 15 47  1  0  0  0  0
 16 17  1  0  0  0  0
 16 27  1  0  0  0  0
 16 48  1  0  0  0  0
 16 49  1  0  0  0  0
 17 27  1  0  0  0  0
 17 50  1  0  0  0  0
 17 51  1  0  0  0  0
  5 18  1  0  0  0  0
 18 52  1  0  0  0  0
 18 53  1  0  0  0  0
  5 19  1  0  0  0  0
 19 54  1  0  0  0  0
 19 55  1  0  0  0  0
  5 20  1  0  0  0  0
 20 27  1  0  0  0  0
 20 56  1  0  0  0  0
 20 57  1  0  0  0  0
 21 25  1  0  0  0  0
 22 28  1  0  0  0  0
  8 23  1  0  0  0  0
 23 58  1  0  0  0  0
  8 24  1  0  0  0  0
 24 59  1  0  0  0  0
  6 25  2  0  0  0  0
  8 25  1  0  0  0  0
  2 26  1  0  0  0  0
  9 26  2  0  0  0  0
 26 27  1  0  0  0  0
  3 28  1  0  0  0  0
 28 29  1  0  0  0  0
 29 30  1  0  0  0  0
 29 31  1  0  0  0  0
 29 32  1  0  0  0  0
M  END
$$$$
