@<TRIPOS>MOLECULE
data/mol2/7zc7_IKL_A_401.mol2
48 51 1 0 0
SMALL
AMBER ff14SB


@<TRIPOS>ATOM
      1 C1        -12.7430  -12.7850   48.0000 C.2       1 noname1       -0.0566
      2 C2        -12.7490  -15.1650   49.8030 C.2       1 noname1        0.2215
      3 C3         -9.8620  -16.5570   47.7560 C.2       1 noname1        0.0238
      4 C4         -8.7800  -15.4820   47.6650 C.3       1 noname1       -0.0219
      5 C5         -7.5360  -15.8670   46.8360 C.3       1 noname1       -0.0486
      6 C6         -8.5940  -18.1250   46.2840 C.3       1 noname1       -0.0029
      7 C7        -15.3810  -11.9890   47.9460 C.2       1 noname1       -0.0383
      8 C8        -17.1580   -8.2490   44.4840 C.3       1 noname1       -0.0205
      9 C9        -16.2540   -9.4600   44.6930 C.2       1 noname1        0.0577
     10 N1        -15.9330   -9.9550   45.8800 N.2       1 noname1       -0.1818
     11 N2        -15.1100  -11.0280   45.6960 N.3       1 noname1       -0.1982
     12 C10       -14.9010  -11.2190   44.4000 C.2       1 noname1        0.0326
     13 C11       -14.0590  -12.3160   43.7230 C.3       1 noname1       -0.0242
     14 C12       -15.6150  -10.2390   43.7370 C.2       1 noname1       -0.0201
     15 C13       -14.5740  -11.7460   46.8460 C.2       1 noname1        0.0560
     16 C14       -13.2420  -12.1280   46.8880 C.2       1 noname1       -0.0383
     17 C15       -13.5470  -13.0330   49.1170 C.2       1 noname1       -0.0388
     18 C16       -13.0210  -13.7870   50.3620 C.3       1 noname1        0.0499
     19 O1        -13.5790  -16.0010   49.8350 O.2       1 noname1       -0.2769
     20 N3        -11.4590  -15.3550   49.1890 N.3       1 noname1       -0.2676
     21 C17       -11.0650  -16.5320   48.4890 C.2       1 noname1        0.1576
     22 N4        -11.7400  -17.6750   48.2520 N.2       1 noname1       -0.1128
     23 O2        -10.9490  -18.4380   47.4270 O.3       1 noname1       -0.2163
     24 C18        -9.8170  -17.7430   47.1190 C.2       1 noname1        0.0916
     25 C19        -7.7410  -16.9570   45.7830 C.3       1 noname1       -0.0468
     26 C20       -14.8770  -12.6310   49.0660 C.2       1 noname1       -0.0566
     27 H1        -11.7030  -13.1114   47.9960 H         1 noname1        0.0626
     28 H2         -9.2437  -14.6511   47.1334 H         1 noname1        0.0318
     29 H3         -8.4237  -15.3449   48.6860 H         1 noname1        0.0318
     30 H4         -7.2724  -14.9721   46.2723 H         1 noname1        0.0270
     31 H5         -6.8288  -16.2896   47.5498 H         1 noname1        0.0270
     32 H6         -8.9923  -18.5993   45.3871 H         1 noname1        0.0338
     33 H7         -7.9480  -18.6884   46.9573 H         1 noname1        0.0338
     34 H8        -16.4237  -11.6717   47.9301 H         1 noname1        0.0644
     35 H9        -17.4575   -7.8478   45.4522 H         1 noname1        0.0296
     36 H10       -16.6180   -7.4846   43.9252 H         1 noname1        0.0296
     37 H11       -18.0444   -8.5494   43.9252 H         1 noname1        0.0296
     38 H12       -13.5852  -12.9333   44.4862 H         1 noname1        0.0294
     39 H13       -14.7039  -12.9375   43.1017 H         1 noname1        0.0294
     40 H14       -13.2919  -11.8538   43.1017 H         1 noname1        0.0294
     41 H15       -15.6651  -10.1048   42.6564 H         1 noname1        0.0660
     42 H16       -12.5858  -11.9114   46.0451 H         1 noname1        0.0644
     43 H17       -13.8306  -13.8714   51.0869 H         1 noname1        0.0415
     44 H18       -12.0676  -13.3494   50.6582 H         1 noname1        0.0415
     45 H19       -10.7815  -14.6087   49.2540 H         1 noname1        0.1573
     46 H20        -8.3104  -16.4928   44.9778 H         1 noname1        0.0271
     47 H21        -6.7526  -17.3708   45.5833 H         1 noname1        0.0271
     48 H22       -15.5332  -12.8217   49.9152 H         1 noname1        0.0626
@<TRIPOS>BOND
     1    1   16 2
     2    1   17 1
     3    2   20 1
     4    2   19 2
     5    2   18 1
     6    3   24 2
     7    3    4 1
     8    3   21 1
     9    4    5 1
    10    5   25 1
    11    6   25 1
    12    6   24 1
    13    7   15 2
    14    7   26 1
    15    8    9 1
    16    9   14 1
    17    9   10 2
    18   10   11 1
    19   11   12 1
    20   11   15 1
    21   12   13 1
    22   12   14 2
    23   15   16 1
    24   17   26 2
    25   17   18 1
    26   20   21 1
    27   21   22 2
    28   22   23 1
    29   23   24 1
    30    1   27 1
    31    4   28 1
    32    4   29 1
    33    5   30 1
    34    5   31 1
    35    6   32 1
    36    6   33 1
    37    7   34 1
    38    8   35 1
    39    8   36 1
    40    8   37 1
    41   13   38 1
    42   13   39 1
    43   13   40 1
    44   14   41 1
    45   16   42 1
    46   18   43 1
    47   18   44 1
    48   20   45 1
    49   25   46 1
    50   25   47 1
    51   26   48 1
@<TRIPOS>SUBSTRUCTURE
     1 noname1        1 RESIDUE           4 A     noname     0 ROOT
