RMA_601_1S3B
  PyMOL2.6          3D                             0

 32 33  0  0  0  0  0  0  0  0999 V2000
   53.9140  152.8990   25.5760 C   0  0  0  0  0  0  0  0  0  0  0  0
   53.0570  153.3850   24.7420 N   0  3  0  0  0  0  0  0  0  0  0  0
   53.9890  151.3550   21.8360 C   0  0  0  0  0  0  0  0  0  0  0  0
   50.9380  154.4520   29.2130 C   0  0  0  0  0  0  0  0  0  0  0  0
   50.7560  153.2750   28.4970 C   0  0  0  0  0  0  0  0  0  0  0  0
   51.4940  155.5650   28.6010 C   0  0  0  0  0  0  0  0  0  0  0  0
   51.1110  153.1890   27.1580 C   0  0  0  0  0  0  0  0  0  0  0  0
   52.4620  156.5410   26.4410 C   0  0  0  0  0  0  0  0  0  0  0  0
   52.7910  155.8190   25.1210 C   0  0  0  0  0  0  0  0  0  0  0  0
   53.0210  152.9490   23.5260 C   0  0  0  0  0  0  0  0  0  0  0  0
   53.9680  151.8440   23.0370 C   0  0  0  0  0  0  0  0  0  0  0  0
   51.8490  155.4620   27.2720 C   0  0  0  0  0  0  0  0  0  0  0  0
   51.6670  154.3070   26.5670 C   0  0  0  0  0  0  0  0  0  0  0  0
   52.1190  154.4370   25.1380 C   0  0  0  0  0  0  0  0  0  0  0  0
   53.7943  153.3896   26.5532 H   0  0  0  0  0  0  0  0  0  0  0  0
   53.7458  151.8175   25.6858 H   0  0  0  0  0  0  0  0  0  0  0  0
   54.9324  153.0755   25.1996 H   0  0  0  0  0  0  0  0  0  0  0  0
   53.3024  151.7265   21.0896 H   0  0  0  0  0  0  0  0  0  0  0  0
   54.6930  150.5763   21.5822 H   0  0  0  0  0  0  0  0  0  0  0  0
   50.6449  154.5000   30.2514 H   0  0  0  0  0  0  0  0  0  0  0  0
   50.3314  152.4132   28.9905 H   0  0  0  0  0  0  0  0  0  0  0  0
   51.6445  156.4841   29.1478 H   0  0  0  0  0  0  0  0  0  0  0  0
   50.9578  152.2789   26.5971 H   0  0  0  0  0  0  0  0  0  0  0  0
   53.3651  156.9544   26.9139 H   0  0  0  0  0  0  0  0  0  0  0  0
   51.7655  157.3777   26.2836 H   0  0  0  0  0  0  0  0  0  0  0  0
   52.4125  156.4063   24.2714 H   0  0  0  0  0  0  0  0  0  0  0  0
   53.8803  155.7018   25.0225 H   0  0  0  0  0  0  0  0  0  0  0  0
   53.2341  153.8226   22.8924 H   0  0  0  0  0  0  0  0  0  0  0  0
   52.0051  152.5516   23.3845 H   0  0  0  0  0  0  0  0  0  0  0  0
   54.6727  151.4419   23.7498 H   0  0  0  0  0  0  0  0  0  0  0  0
   51.2883  154.3363   24.4240 H   0  0  0  0  0  0  0  0  0  0  0  0
   53.2405  153.1991   25.7073 H   0  0  0  0  0  0  0  0  0  0  0  0
  1  2  1  0  0  0  0
  1 15  1  0  0  0  0
  1 16  1  0  0  0  0
  1 17  1  0  0  0  0
  2 32  1  0  0  0  0
  3 11  2  0  0  0  0
  3 18  1  0  0  0  0
  3 19  1  0  0  0  0
  4  5  4  0  0  0  0
  4  6  4  0  0  0  0
  4 20  1  0  0  0  0
  5  7  4  0  0  0  0
  5 21  1  0  0  0  0
  6 12  4  0  0  0  0
  6 22  1  0  0  0  0
  7 13  4  0  0  0  0
  7 23  1  0  0  0  0
  8  9  1  0  0  0  0
  8 12  1  0  0  0  0
  8 24  1  0  0  0  0
  8 25  1  0  0  0  0
  9 14  1  0  0  0  0
  9 26  1  0  0  0  0
  9 27  1  0  0  0  0
  2 10  1  0  0  0  0
 10 11  1  0  0  0  0
 10 28  1  0  0  0  0
 10 29  1  0  0  0  0
 11 30  1  0  0  0  0
 12 13  4  0  0  0  0
 13 14  1  0  0  0  0
  2 14  1  0  0  0  0
 14 31  1  0  0  0  0
M  END
$$$$
