UI3_A1001_1SQT
  PyMOL2.6          3D                             0

 45 47  0  0  0  0  0  0  0  0999 V2000
   25.5590   15.1380   34.2870 C   0  0  0  0  0  0  0  0  0  0  0  0
   16.9780   19.7470   33.6840 N   0  0  0  0  0  0  0  0  0  0  0  0
   24.8390   20.5130   39.2400 O   0  0  0  0  0  0  0  0  0  0  0  0
   24.9760   19.1860   38.6680 S   0  0  0  0  0  0  0  0  0  0  0  0
   24.4350   17.8920   39.7690 C   0  0  0  0  0  0  0  0  0  0  0  0
   18.7730   20.8310   34.5960 N   0  3  0  0  0  0  0  0  0  0  0  0
   26.2700   18.8100   38.1540 O   0  0  0  0  0  0  0  0  0  0  0  0
   19.5460   16.7560   32.1380 C   0  0  0  0  0  0  0  0  0  0  0  0
   24.1440   20.1530   36.0980 N   0  0  0  0  0  0  0  0  0  0  0  0
   24.5530   16.0550   34.7060 O   0  0  0  0  0  0  0  0  0  0  0  0
   21.6050   15.5170   32.3500 C   0  0  0  0  0  0  0  0  0  0  0  0
   23.9820   19.2160   37.2050 N   0  0  0  0  0  0  0  0  0  0  0  0
   18.7320   17.7980   32.5450 C   0  0  0  0  0  0  0  0  0  0  0  0
   22.8630   15.2860   32.9690 C   0  0  0  0  0  0  0  0  0  0  0  0
   20.4510   18.5740   34.1440 C   0  0  0  0  0  0  0  0  0  0  0  0
   23.3510   19.7130   35.0840 C   0  0  0  0  0  0  0  0  0  0  0  0
   23.8430   17.9820   36.4130 C   0  0  0  0  0  0  0  0  0  0  0  0
   20.8180   16.6100   32.7350 C   0  0  0  0  0  0  0  0  0  0  0  0
   19.1780   18.6980   33.5390 C   0  0  0  0  0  0  0  0  0  0  0  0
   23.3240   16.1860   33.9870 C   0  0  0  0  0  0  0  0  0  0  0  0
   21.2960   17.5270   33.7420 C   0  0  0  0  0  0  0  0  0  0  0  0
   22.5690   17.3060   34.3480 C   0  0  0  0  0  0  0  0  0  0  0  0
   23.2310   18.2790   35.2620 C   0  0  0  0  0  0  0  0  0  0  0  0
   18.3140   19.7900   33.9540 C   0  0  0  0  0  0  0  0  0  0  0  0
   26.4167   15.1950   34.9734 H   0  0  0  0  0  0  0  0  0  0  0  0
   25.1503   14.1168   34.2951 H   0  0  0  0  0  0  0  0  0  0  0  0
   25.8869   15.3938   33.2687 H   0  0  0  0  0  0  0  0  0  0  0  0
   25.0647   17.8902   40.6709 H   0  0  0  0  0  0  0  0  0  0  0  0
   23.3871   18.0675   40.0540 H   0  0  0  0  0  0  0  0  0  0  0  0
   24.5192   16.9198   39.2613 H   0  0  0  0  0  0  0  0  0  0  0  0
   19.2145   16.0656   31.3765 H   0  0  0  0  0  0  0  0  0  0  0  0
   21.2540   14.8469   31.5792 H   0  0  0  0  0  0  0  0  0  0  0  0
   17.7548   17.9237   32.1026 H   0  0  0  0  0  0  0  0  0  0  0  0
   23.4671   14.4401   32.6757 H   0  0  0  0  0  0  0  0  0  0  0  0
   20.7679   19.2737   34.9032 H   0  0  0  0  0  0  0  0  0  0  0  0
   23.8038   19.9459   34.1090 H   0  0  0  0  0  0  0  0  0  0  0  0
   22.3623   20.1931   35.1290 H   0  0  0  0  0  0  0  0  0  0  0  0
   23.2459   17.2468   36.9724 H   0  0  0  0  0  0  0  0  0  0  0  0
   24.8372   17.5589   36.2068 H   0  0  0  0  0  0  0  0  0  0  0  0
   22.6864   17.6347   34.5561 H   0  0  0  0  0  0  0  0  0  0  0  0
   16.3845   20.4971   33.9757 H   0  0  0  0  0  0  0  0  0  0  0  0
   16.5918   18.9653   33.1943 H   0  0  0  0  0  0  0  0  0  0  0  0
   18.1499   21.5627   34.8724 H   0  0  0  0  0  0  0  0  0  0  0  0
   19.7474   20.8962   34.8110 H   0  0  0  0  0  0  0  0  0  0  0  0
   25.0994   20.1806   35.8041 H   0  0  0  0  0  0  0  0  0  0  0  0
  1 10  1  0  0  0  0
  1 25  1  0  0  0  0
  1 26  1  0  0  0  0
  1 27  1  0  0  0  0
  2 41  1  0  0  0  0
  2 42  1  0  0  0  0
  3  4  2  0  0  0  0
  4  5  1  0  0  0  0
  5 28  1  0  0  0  0
  5 29  1  0  0  0  0
  5 30  1  0  0  0  0
  6 43  1  0  0  0  0
  6 44  1  0  0  0  0
  4  7  2  0  0  0  0
  8 13  4  0  0  0  0
  8 18  4  0  0  0  0
  8 31  1  0  0  0  0
  9 12  1  0  0  0  0
  9 45  1  0  0  0  0
 11 14  4  0  0  0  0
 11 18  4  0  0  0  0
 11 32  1  0  0  0  0
  4 12  1  0  0  0  0
 13 19  4  0  0  0  0
 13 33  1  0  0  0  0
 14 20  4  0  0  0  0
 14 34  1  0  0  0  0
 15 19  4  0  0  0  0
 15 21  4  0  0  0  0
 15 35  1  0  0  0  0
  9 16  1  0  0  0  0
 16 23  1  0  0  0  0
 16 36  1  0  0  0  0
 16 37  1  0  0  0  0
 12 17  1  0  0  0  0
 17 23  1  0  0  0  0
 17 38  1  0  0  0  0
 17 39  1  0  0  0  0
 18 21  4  0  0  0  0
 19 24  1  0  0  0  0
 10 20  1  0  0  0  0
 20 22  4  0  0  0  0
 21 22  4  0  0  0  0
 22 23  1  0  0  0  0
 23 40  1  0  0  0  0
  2 24  1  0  0  0  0
  6 24  2  0  0  0  0
M  END
$$$$
