*****
  PyMOL2.6          3D                             0

 52 53  0  0  0  0  0  0  0  0999 V2000
   12.4240   19.4450   22.7230 C   0  0  0  0  0  0  0  0  0  0  0  0
    8.1130   22.7200   22.8350 N   0  0  0  0  0  0  0  0  0  0  0  0
    6.6120   19.0100   22.0640 O   0  0  0  0  0  0  0  0  0  0  0  0
    7.9580   19.1110   22.2270 C   0  0  0  0  0  0  0  0  0  0  0  0
    7.9110   24.3440   25.4130 N   0  3  0  0  0  0  0  0  0  0  0  0
   10.4870   21.5450   23.3030 O   0  0  0  0  0  0  0  0  0  0  0  0
    8.7640   18.0060   21.9300 C   0  0  0  0  0  0  0  0  0  0  0  0
    6.3960   21.3210   23.2770 O   0  0  0  0  0  0  0  0  0  0  0  0
   10.1480   18.1280   22.0720 C   0  0  0  0  0  0  0  0  0  0  0  0
   10.7110   19.3190   22.5240 C   0  0  0  0  0  0  0  0  0  0  0  0
    9.9020   20.4090   22.8400 C   0  0  0  0  0  0  0  0  0  0  0  0
   10.7470   21.3910   24.7050 C   0  0  0  0  0  0  0  0  0  0  0  0
    8.5110   20.3090   22.7030 C   0  0  0  0  0  0  0  0  0  0  0  0
    7.5760   21.5070   22.9890 C   0  0  0  0  0  0  0  0  0  0  0  0
    7.3610   23.9750   23.0350 C   0  0  0  0  0  0  0  0  0  0  0  0
    6.8120   24.0730   24.4630 C   0  0  0  0  0  0  0  0  0  0  0  0
    5.8560   25.2590   24.5600 C   0  0  0  0  0  0  0  0  0  0  0  0
    6.7760   26.3970   24.9700 C   0  0  0  0  0  0  0  0  0  0  0  0
    7.7120   25.7060   25.9500 C   0  0  0  0  0  0  0  0  0  0  0  0
    7.8450   23.3630   26.5050 C   0  0  0  0  0  0  0  0  0  0  0  0
    9.2140   23.1980   27.1480 C   0  0  0  0  0  0  0  0  0  0  0  0
    8.2410   16.6670   21.3800 C   0  0  0  0  0  0  0  0  0  0  0  0
    7.2470   15.9870   22.3250 C   0  0  0  0  0  0  0  0  0  0  0  0
   12.8763   19.8101   21.7891 H   0  0  0  0  0  0  0  0  0  0  0  0
   12.6475   20.1490   23.5381 H   0  0  0  0  0  0  0  0  0  0  0  0
   12.8382   18.4560   22.9687 H   0  0  0  0  0  0  0  0  0  0  0  0
    9.0753   22.7817   22.5702 H   0  0  0  0  0  0  0  0  0  0  0  0
    6.1892   19.7747   22.4368 H   0  0  0  0  0  0  0  0  0  0  0  0
    8.8025   24.2756   24.9652 H   0  0  0  0  0  0  0  0  0  0  0  0
   10.7870   17.2918   21.8293 H   0  0  0  0  0  0  0  0  0  0  0  0
   11.2211   22.3046   25.0930 H   0  0  0  0  0  0  0  0  0  0  0  0
    9.7999   21.2156   25.2363 H   0  0  0  0  0  0  0  0  0  0  0  0
   11.4193   20.5345   24.8611 H   0  0  0  0  0  0  0  0  0  0  0  0
    8.0340   24.8259   22.8533 H   0  0  0  0  0  0  0  0  0  0  0  0
    6.5192   24.0020   22.3275 H   0  0  0  0  0  0  0  0  0  0  0  0
    6.3088   23.1243   24.7012 H   0  0  0  0  0  0  0  0  0  0  0  0
    5.3581   25.4618   23.6003 H   0  0  0  0  0  0  0  0  0  0  0  0
    5.0643   25.0857   25.3038 H   0  0  0  0  0  0  0  0  0  0  0  0
    7.3166   26.8215   24.1112 H   0  0  0  0  0  0  0  0  0  0  0  0
    6.2251   27.2257   25.4387 H   0  0  0  0  0  0  0  0  0  0  0  0
    8.6698   26.2423   26.0200 H   0  0  0  0  0  0  0  0  0  0  0  0
    7.2670   25.6686   26.9553 H   0  0  0  0  0  0  0  0  0  0  0  0
    7.1288   23.7128   27.2631 H   0  0  0  0  0  0  0  0  0  0  0  0
    7.5153   22.3941   26.1018 H   0  0  0  0  0  0  0  0  0  0  0  0
    9.1506   22.4618   27.9629 H   0  0  0  0  0  0  0  0  0  0  0  0
    9.9337   22.8482   26.3932 H   0  0  0  0  0  0  0  0  0  0  0  0
    9.5477   24.1649   27.5527 H   0  0  0  0  0  0  0  0  0  0  0  0
    7.7342   16.8591   20.4228 H   0  0  0  0  0  0  0  0  0  0  0  0
    9.0981   15.9931   21.2342 H   0  0  0  0  0  0  0  0  0  0  0  0
    6.9087   15.0388   21.8817 H   0  0  0  0  0  0  0  0  0  0  0  0
    7.7366   15.7866   23.2894 H   0  0  0  0  0  0  0  0  0  0  0  0
    6.3814   16.6471   22.4832 H   0  0  0  0  0  0  0  0  0  0  0  0
  1 10  1  0  0  0  0
  1 24  1  0  0  0  0
  1 25  1  0  0  0  0
  1 26  1  0  0  0  0
  2 14  1  0  0  0  0
  2 15  1  0  0  0  0
  2 27  1  0  0  0  0
  3 28  1  0  0  0  0
  3  4  1  0  0  0  0
  4  7  4  0  0  0  0
  4 13  4  0  0  0  0
  5 16  1  0  0  0  0
  5 19  1  0  0  0  0
  5 20  1  0  0  0  0
  5 29  1  0  0  0  0
  6 11  1  0  0  0  0
  6 12  1  0  0  0  0
  7  9  4  0  0  0  0
  7 22  1  0  0  0  0
  8 14  2  0  0  0  0
  9 10  4  0  0  0  0
  9 30  1  0  0  0  0
 10 11  4  0  0  0  0
 11 13  4  0  0  0  0
 12 31  1  0  0  0  0
 12 32  1  0  0  0  0
 12 33  1  0  0  0  0
 13 14  1  0  0  0  0
 15 16  1  0  0  0  0
 15 34  1  0  0  0  0
 15 35  1  0  0  0  0
 16 17  1  0  0  0  0
 16 36  1  0  0  0  0
 17 18  1  0  0  0  0
 17 37  1  0  0  0  0
 17 38  1  0  0  0  0
 18 19  1  0  0  0  0
 18 39  1  0  0  0  0
 18 40  1  0  0  0  0
 19 41  1  0  0  0  0
 19 42  1  0  0  0  0
 20 21  1  0  0  0  0
 20 43  1  0  0  0  0
 20 44  1  0  0  0  0
 21 45  1  0  0  0  0
 21 46  1  0  0  0  0
 21 47  1  0  0  0  0
 22 23  1  0  0  0  0
 22 48  1  0  0  0  0
 22 49  1  0  0  0  0
 23 50  1  0  0  0  0
 23 51  1  0  0  0  0
 23 52  1  0  0  0  0
M  END
$$$$
