KEU_510_1NJS
  PyMOL2.6          3D                             0

 62 63  0  0  0  0  0  0  0  0999 V2000
   72.5060   24.0940   31.8190 C   0  0  0  0  0  0  0  0  0  0  0  0
   78.1340   22.6330   28.2050 N   0  0  0  0  0  0  0  0  0  0  0  0
   70.0730   23.1390   29.9110 O   0  0  0  0  0  0  0  0  0  0  0  0
   73.7620   21.8770   31.2140 C   0  0  0  0  0  0  0  0  0  0  0  0
   79.6460   27.0650   28.0610 N   0  0  0  0  0  0  0  0  0  0  0  0
   70.4950   22.7470   27.8530 O   0  0  0  0  0  0  0  0  0  0  0  0
   73.0940   24.0280   33.1320 C   0  0  0  0  0  0  0  0  0  0  0  0
   77.5190   26.6430   27.1670 N   0  0  0  0  0  0  0  0  0  0  0  0
   72.8400   19.0450   38.0060 O   0  5  0  0  0  0  0  0  0  0  0  0
   74.3460   21.8270   32.5030 C   0  0  0  0  0  0  0  0  0  0  0  0
   78.7960   24.9900   28.0380 N   0  0  0  0  0  0  0  0  0  0  0  0
   78.4420   22.1830   35.0300 O   0  5  0  0  0  0  0  0  0  0  0  0
   74.4790   23.5450   28.1090 C   0  0  0  0  0  0  0  0  0  0  0  0
   75.5580   22.0070   35.1200 N   0  0  0  0  0  0  0  0  0  0  0  0
   75.4060   26.2830   26.2700 O   0  0  0  0  0  0  0  0  0  0  0  0
   75.2560   23.5310   26.7410 C   0  0  0  0  0  0  0  0  0  0  0  0
   74.9970   18.3170   38.1130 O   0  0  0  0  0  0  0  0  0  0  0  0
   73.4310   22.2360   28.3980 C   0  0  0  0  0  0  0  0  0  0  0  0
   74.3110   23.8530   35.5570 O   0  0  0  0  0  0  0  0  0  0  0  0
   75.9560   20.7030   37.0350 C   0  0  0  0  0  0  0  0  0  0  0  0
   78.4540   22.7900   37.2050 O   0  0  0  0  0  0  0  0  0  0  0  0
   74.4610   20.4780   37.2500 C   0  0  0  0  0  0  0  0  0  0  0  0
   72.8640   22.9760   30.8200 C   0  0  0  0  0  0  0  0  0  0  0  0
   74.0250   22.9100   33.4760 C   0  0  0  0  0  0  0  0  0  0  0  0
   76.5150   24.2100   27.1830 C   0  0  0  0  0  0  0  0  0  0  0  0
   77.8090   23.9140   27.8210 C   0  0  0  0  0  0  0  0  0  0  0  0
   76.4070   25.5120   26.8780 C   0  0  0  0  0  0  0  0  0  0  0  0
   78.6530   26.2130   27.7690 C   0  0  0  0  0  0  0  0  0  0  0  0
   72.3640   22.9160   29.2740 C   0  0  0  0  0  0  0  0  0  0  0  0
   76.2790   22.0330   36.4470 C   0  0  0  0  0  0  0  0  0  0  0  0
   74.1420   19.1610   37.8330 C   0  0  0  0  0  0  0  0  0  0  0  0
   74.6150   22.9670   34.7900 C   0  0  0  0  0  0  0  0  0  0  0  0
   77.8240   22.3670   36.2490 C   0  0  0  0  0  0  0  0  0  0  0  0
   70.9590   22.3460   28.8430 C   0  0  0  0  0  0  0  0  0  0  0  0
   70.5640   20.9330   29.3290 C   0  0  0  0  0  0  0  0  0  0  0  0
   69.3330   20.6340   28.8810 F   0  0  0  0  0  0  0  0  0  0  0  0
   71.5150   20.2140   28.7430 F   0  0  0  0  0  0  0  0  0  0  0  0
   70.6650   20.6050   30.6730 F   0  0  0  0  0  0  0  0  0  0  0  0
   71.8386   24.8975   31.5443 H   0  0  0  0  0  0  0  0  0  0  0  0
   73.9797   21.0924   30.5045 H   0  0  0  0  0  0  0  0  0  0  0  0
   72.8628   24.7849   33.8669 H   0  0  0  0  0  0  0  0  0  0  0  0
   75.0106   21.0206   32.7758 H   0  0  0  0  0  0  0  0  0  0  0  0
   75.2318   23.5426   28.9111 H   0  0  0  0  0  0  0  0  0  0  0  0
   73.8694   24.4604   28.1278 H   0  0  0  0  0  0  0  0  0  0  0  0
   75.4256   22.5169   26.3501 H   0  0  0  0  0  0  0  0  0  0  0  0
   74.7311   24.0718   25.9397 H   0  0  0  0  0  0  0  0  0  0  0  0
   73.0119   21.8185   27.4706 H   0  0  0  0  0  0  0  0  0  0  0  0
   73.9301   21.4017   28.9126 H   0  0  0  0  0  0  0  0  0  0  0  0
   76.4572   20.6294   38.0114 H   0  0  0  0  0  0  0  0  0  0  0  0
   76.3238   19.9265   36.3482 H   0  0  0  0  0  0  0  0  0  0  0  0
   74.0929   21.2548   37.9364 H   0  0  0  0  0  0  0  0  0  0  0  0
   73.9597   20.5510   36.2736 H   0  0  0  0  0  0  0  0  0  0  0  0
   72.2099   23.9945   29.1218 H   0  0  0  0  0  0  0  0  0  0  0  0
   75.9656   22.8292   37.1383 H   0  0  0  0  0  0  0  0  0  0  0  0
   79.0527   22.6258   28.5998 H   0  0  0  0  0  0  0  0  0  0  0  0
   77.4761   22.3124   28.8864 H   0  0  0  0  0  0  0  0  0  0  0  0
   80.4041   26.5637   28.4782 H   0  0  0  0  0  0  0  0  0  0  0  0
   79.9615   27.5089   27.2223 H   0  0  0  0  0  0  0  0  0  0  0  0
   77.3800   27.6013   26.9175 H   0  0  0  0  0  0  0  0  0  0  0  0
   75.7659   21.2806   34.4649 H   0  0  0  0  0  0  0  0  0  0  0  0
   69.1581   22.9105   29.7962 H   0  0  0  0  0  0  0  0  0  0  0  0
   69.6545   22.3297   27.7049 H   0  0  0  0  0  0  0  0  0  0  0  0
  1  7  4  0  0  0  0
  1 23  4  0  0  0  0
  1 39  1  0  0  0  0
  2 55  1  0  0  0  0
  2 56  1  0  0  0  0
  3 61  1  0  0  0  0
  4 10  4  0  0  0  0
  4 23  4  0  0  0  0
  4 40  1  0  0  0  0
  5 57  1  0  0  0  0
  5 58  1  0  0  0  0
  6 62  1  0  0  0  0
  7 24  4  0  0  0  0
  7 41  1  0  0  0  0
  8 59  1  0  0  0  0
 10 24  4  0  0  0  0
 10 42  1  0  0  0  0
 13 16  1  0  0  0  0
 13 18  1  0  0  0  0
 13 43  1  0  0  0  0
 13 44  1  0  0  0  0
 14 60  1  0  0  0  0
 16 25  1  0  0  0  0
 16 45  1  0  0  0  0
 16 46  1  0  0  0  0
 18 29  1  0  0  0  0
 18 47  1  0  0  0  0
 18 48  1  0  0  0  0
 20 22  1  0  0  0  0
 20 30  1  0  0  0  0
 20 49  1  0  0  0  0
 20 50  1  0  0  0  0
 22 31  1  0  0  0  0
 22 51  1  0  0  0  0
 22 52  1  0  0  0  0
 23 29  1  0  0  0  0
 24 32  1  0  0  0  0
 25 26  2  0  0  0  0
 25 27  1  0  0  0  0
  2 26  1  0  0  0  0
 11 26  1  0  0  0  0
  8 27  1  0  0  0  0
 15 27  2  0  0  0  0
  5 28  1  0  0  0  0
  8 28  1  0  0  0  0
 11 28  2  0  0  0  0
 29 34  1  0  0  0  0
 29 53  1  0  0  0  0
 14 30  1  0  0  0  0
 30 33  1  0  0  0  0
 30 54  1  0  0  0  0
  9 31  1  0  0  0  0
 17 31  2  0  0  0  0
 14 32  1  0  0  0  0
 19 32  2  0  0  0  0
 12 33  1  0  0  0  0
 21 33  2  0  0  0  0
  3 34  1  0  0  0  0
  6 34  1  0  0  0  0
 34 35  1  0  0  0  0
 35 36  1  0  0  0  0
 35 37  1  0  0  0  0
 35 38  1  0  0  0  0
M  END
$$$$
