BB2_501_1LRU
  PyMOL2.6          3D                             0

 62 62  0  0  0  0  0  0  0  0999 V2000
  -35.6930   22.1120   67.4400 C   0  0  0  0  0  0  0  0  0  0  0  0
  -36.7500   26.7830   67.2450 N   0  0  0  0  0  0  0  0  0  0  0  0
  -41.3410   22.1560   67.7700 O   0  0  0  0  0  0  0  0  0  0  0  0
  -38.3770   29.2070   67.5030 C   0  0  0  0  0  0  0  0  0  0  0  0
  -31.6550   27.8160   65.3780 N   0  0  0  0  0  0  0  0  0  0  0  0
  -30.9460   27.7420   64.1470 O   0  0  0  0  0  0  0  0  0  0  0  0
  -40.2010   27.8240   68.3990 C   0  0  0  0  0  0  0  0  0  0  0  0
  -38.8410   24.6280   68.9100 N   0  0  0  0  0  0  0  0  0  0  0  0
  -33.0980   29.0810   64.3220 O   0  0  0  0  0  0  0  0  0  0  0  0
  -38.6940   23.9040   71.0830 C   0  0  0  0  0  0  0  0  0  0  0  0
  -35.5210   27.8780   68.7720 O   0  0  0  0  0  0  0  0  0  0  0  0
  -39.5380   22.9190   70.3720 C   0  0  0  0  0  0  0  0  0  0  0  0
  -38.6540   24.9030   66.6740 O   0  0  0  0  0  0  0  0  0  0  0  0
  -38.8510   25.1460   70.2840 C   0  0  0  0  0  0  0  0  0  0  0  0
  -35.4750   22.8230   66.1300 C   0  0  0  0  0  0  0  0  0  0  0  0
  -34.4360   23.9440   66.0590 C   0  0  0  0  0  0  0  0  0  0  0  0
  -34.3740   24.7040   67.3500 C   0  0  0  0  0  0  0  0  0  0  0  0
  -33.5900   26.0320   67.2000 C   0  0  0  0  0  0  0  0  0  0  0  0
  -40.6730   23.3770   68.0730 C   0  0  0  0  0  0  0  0  0  0  0  0
  -33.6620   28.5440   66.6210 C   0  0  0  0  0  0  0  0  0  0  0  0
  -39.3620   23.2540   68.8790 C   0  0  0  0  0  0  0  0  0  0  0  0
  -38.9930   27.8160   67.5190 C   0  0  0  0  0  0  0  0  0  0  0  0
  -34.4410   27.2210   66.7220 C   0  0  0  0  0  0  0  0  0  0  0  0
  -37.9760   26.7650   68.0300 C   0  0  0  0  0  0  0  0  0  0  0  0
  -32.7850   28.4930   65.3750 C   0  0  0  0  0  0  0  0  0  0  0  0
  -35.6310   27.3460   67.6710 C   0  0  0  0  0  0  0  0  0  0  0  0
  -38.5230   25.3480   67.8160 C   0  0  0  0  0  0  0  0  0  0  0  0
  -36.4679   21.3413   67.3150 H   0  0  0  0  0  0  0  0  0  0  0  0
  -34.7534   21.6384   67.7607 H   0  0  0  0  0  0  0  0  0  0  0  0
  -36.0167   22.8372   68.2011 H   0  0  0  0  0  0  0  0  0  0  0  0
  -37.4870   29.2070   66.8565 H   0  0  0  0  0  0  0  0  0  0  0  0
  -39.1114   29.9286   67.1157 H   0  0  0  0  0  0  0  0  0  0  0  0
  -38.0873   29.4913   68.5254 H   0  0  0  0  0  0  0  0  0  0  0  0
  -40.6508   26.8203   68.4144 H   0  0  0  0  0  0  0  0  0  0  0  0
  -39.9087   28.1103   69.4201 H   0  0  0  0  0  0  0  0  0  0  0  0
  -40.9327   28.5476   68.0104 H   0  0  0  0  0  0  0  0  0  0  0  0
  -39.0316   24.0481   72.1199 H   0  0  0  0  0  0  0  0  0  0  0  0
  -37.6434   23.5803   71.1200 H   0  0  0  0  0  0  0  0  0  0  0  0
  -39.2118   21.8908   70.5873 H   0  0  0  0  0  0  0  0  0  0  0  0
  -40.5914   23.0091   70.6756 H   0  0  0  0  0  0  0  0  0  0  0  0
  -39.7873   25.6731   70.5198 H   0  0  0  0  0  0  0  0  0  0  0  0
  -38.0320   25.8583   70.4627 H   0  0  0  0  0  0  0  0  0  0  0  0
  -35.1546   22.0560   65.4095 H   0  0  0  0  0  0  0  0  0  0  0  0
  -36.4398   23.2756   65.8576 H   0  0  0  0  0  0  0  0  0  0  0  0
  -33.4487   23.5035   65.8562 H   0  0  0  0  0  0  0  0  0  0  0  0
  -34.7123   24.6363   65.2500 H   0  0  0  0  0  0  0  0  0  0  0  0
  -35.3999   24.9349   67.6727 H   0  0  0  0  0  0  0  0  0  0  0  0
  -33.8697   24.0800   68.1025 H   0  0  0  0  0  0  0  0  0  0  0  0
  -33.1719   26.2902   68.1842 H   0  0  0  0  0  0  0  0  0  0  0  0
  -32.7907   25.8706   66.4617 H   0  0  0  0  0  0  0  0  0  0  0  0
  -41.3662   23.9902   68.6675 H   0  0  0  0  0  0  0  0  0  0  0  0
  -40.4248   23.8601   67.1165 H   0  0  0  0  0  0  0  0  0  0  0  0
  -34.3655   29.3864   66.5477 H   0  0  0  0  0  0  0  0  0  0  0  0
  -33.0337   28.6760   67.5142 H   0  0  0  0  0  0  0  0  0  0  0  0
  -38.7569   22.4620   68.4136 H   0  0  0  0  0  0  0  0  0  0  0  0
  -39.2791   27.5433   66.4925 H   0  0  0  0  0  0  0  0  0  0  0  0
  -34.7739   27.0205   65.6929 H   0  0  0  0  0  0  0  0  0  0  0  0
  -37.7967   27.0093   69.0874 H   0  0  0  0  0  0  0  0  0  0  0  0
  -36.7538   26.3504   66.3434 H   0  0  0  0  0  0  0  0  0  0  0  0
  -31.3116   27.3746   66.2070 H   0  0  0  0  0  0  0  0  0  0  0  0
  -42.1306   22.3408   67.2752 H   0  0  0  0  0  0  0  0  0  0  0  0
  -31.4052   28.2463   63.4857 H   0  0  0  0  0  0  0  0  0  0  0  0
  1 15  1  0  0  0  0
  1 28  1  0  0  0  0
  1 29  1  0  0  0  0
  1 30  1  0  0  0  0
  2 59  1  0  0  0  0
  3 61  1  0  0  0  0
  4 22  1  0  0  0  0
  4 31  1  0  0  0  0
  4 32  1  0  0  0  0
  4 33  1  0  0  0  0
  5  6  1  0  0  0  0
  5 60  1  0  0  0  0
  6 62  1  0  0  0  0
  7 22  1  0  0  0  0
  7 34  1  0  0  0  0
  7 35  1  0  0  0  0
  7 36  1  0  0  0  0
 10 12  1  0  0  0  0
 10 14  1  0  0  0  0
 10 37  1  0  0  0  0
 10 38  1  0  0  0  0
 12 21  1  0  0  0  0
 12 39  1  0  0  0  0
 12 40  1  0  0  0  0
  8 14  1  0  0  0  0
 14 41  1  0  0  0  0
 14 42  1  0  0  0  0
 15 16  1  0  0  0  0
 15 43  1  0  0  0  0
 15 44  1  0  0  0  0
 16 17  1  0  0  0  0
 16 45  1  0  0  0  0
 16 46  1  0  0  0  0
 17 18  1  0  0  0  0
 17 47  1  0  0  0  0
 17 48  1  0  0  0  0
 18 23  1  0  0  0  0
 18 49  1  0  0  0  0
 18 50  1  0  0  0  0
  3 19  1  0  0  0  0
 19 21  1  0  0  0  0
 19 51  1  0  0  0  0
 19 52  1  0  0  0  0
 20 23  1  0  0  0  0
 20 25  1  0  0  0  0
 20 53  1  0  0  0  0
 20 54  1  0  0  0  0
  8 21  1  0  0  0  0
 21 55  1  0  0  0  0
 22 24  1  0  0  0  0
 22 56  1  0  0  0  0
 23 26  1  0  0  0  0
 23 57  1  0  0  0  0
  2 24  1  0  0  0  0
 24 27  1  0  0  0  0
 24 58  1  0  0  0  0
  5 25  1  0  0  0  0
  9 25  2  0  0  0  0
  2 26  1  0  0  0  0
 11 26  2  0  0  0  0
  8 27  1  0  0  0  0
 13 27  2  0  0  0  0
M  END
$$$$
