PD5_601_3EL8
  PyMOL2.6          3D                             0

 53 56  0  0  0  0  0  0  0  0999 V2000
    4.5340   11.3850    5.9670 C   0  0  0  0  0  0  0  0  0  0  0  0
    5.7480    5.1820    8.6540 N   0  0  0  0  0  0  0  0  0  0  0  0
   -0.0200    2.9710    8.3680 O   0  0  0  0  0  0  0  0  0  0  0  0
    5.4760    9.9560    4.1170 C   0  0  0  0  0  0  0  0  0  0  0  0
    7.6450    6.1770    7.7750 N   0  0  0  0  0  0  0  0  0  0  0  0
   -4.7120    1.2210    9.5860 C   0  0  0  0  0  0  0  0  0  0  0  0
    7.5500    8.1660    6.6060 N   0  0  0  0  0  0  0  0  0  0  0  0
   -4.1780    0.0970    8.9700 C   0  0  0  0  0  0  0  0  0  0  0  0
    4.1520    8.7370    6.7720 N   0  0  0  0  0  0  0  0  0  0  0  0
   -3.9360    2.3690    9.7040 C   0  0  0  0  0  0  0  0  0  0  0  0
   -0.3080    5.0370    9.2080 N   0  0  0  0  0  0  0  0  0  0  0  0
    2.9520    5.5450    7.6680 C   0  0  0  0  0  0  0  0  0  0  0  0
   -1.9640    3.5470    9.3470 N   0  0  0  0  0  0  0  0  0  0  0  0
    2.2670    7.5370    8.8170 C   0  0  0  0  0  0  0  0  0  0  0  0
    5.2760    9.0850    6.3950 N   0  0  0  0  0  0  0  0  0  0  0  0
    1.8060    4.8880    8.1080 C   0  0  0  0  0  0  0  0  0  0  0  0
    1.1220    6.8810    9.2590 C   0  0  0  0  0  0  0  0  0  0  0  0
   -2.1110    1.2750    8.5990 C   0  0  0  0  0  0  0  0  0  0  0  0
    8.2340    7.1580    7.1080 C   0  0  0  0  0  0  0  0  0  0  0  0
    3.1800    6.8750    8.0070 C   0  0  0  0  0  0  0  0  0  0  0  0
    0.8780    5.5610    8.8950 C   0  0  0  0  0  0  0  0  0  0  0  0
   -2.8790    0.1200    8.4760 C   0  0  0  0  0  0  0  0  0  0  0  0
   -2.6380    2.4050    9.2120 C   0  0  0  0  0  0  0  0  0  0  0  0
    5.5660    7.2160    7.4560 C   0  0  0  0  0  0  0  0  0  0  0  0
    4.2290    7.5870    7.4340 C   0  0  0  0  0  0  0  0  0  0  0  0
    6.3210    6.1690    7.9710 C   0  0  0  0  0  0  0  0  0  0  0  0
    6.2140    8.2230    6.7640 C   0  0  0  0  0  0  0  0  0  0  0  0
    5.5470   10.2950    5.6080 C   0  0  0  0  0  0  0  0  0  0  0  0
   -0.7220    3.8010    8.9400 C   0  0  0  0  0  0  0  0  0  0  0  0
   -2.3200   -1.1450    7.8190 C   0  0  0  0  0  0  0  0  0  0  0  0
   -1.1040   -0.9320    7.3280 F   0  0  0  0  0  0  0  0  0  0  0  0
   -2.2560   -2.1120    8.7290 F   0  0  0  0  0  0  0  0  0  0  0  0
   -3.1270   -1.5200    6.8320 F   0  0  0  0  0  0  0  0  0  0  0  0
    4.6034   11.6114    7.0412 H   0  0  0  0  0  0  0  0  0  0  0  0
    4.7518   12.2934    5.3862 H   0  0  0  0  0  0  0  0  0  0  0  0
    3.5186   11.0336    5.7314 H   0  0  0  0  0  0  0  0  0  0  0  0
    6.2114    9.1721    3.8833 H   0  0  0  0  0  0  0  0  0  0  0  0
    4.4661    9.5963    3.8706 H   0  0  0  0  0  0  0  0  0  0  0  0
    5.6993   10.8561    3.5255 H   0  0  0  0  0  0  0  0  0  0  0  0
   -5.7212    1.2039    9.9702 H   0  0  0  0  0  0  0  0  0  0  0  0
   -4.7742   -0.7984    8.8744 H   0  0  0  0  0  0  0  0  0  0  0  0
   -4.3483    3.2439   10.1846 H   0  0  0  0  0  0  0  0  0  0  0  0
    3.6704    5.0175    7.0581 H   0  0  0  0  0  0  0  0  0  0  0  0
    2.4457    8.5626    9.1045 H   0  0  0  0  0  0  0  0  0  0  0  0
    1.6379    3.8559    7.8381 H   0  0  0  0  0  0  0  0  0  0  0  0
    0.4168    7.4014    9.8901 H   0  0  0  0  0  0  0  0  0  0  0  0
   -1.1013    1.2925    8.2162 H   0  0  0  0  0  0  0  0  0  0  0  0
    9.3050    7.1309    6.9718 H   0  0  0  0  0  0  0  0  0  0  0  0
    6.5548   10.6712    5.8379 H   0  0  0  0  0  0  0  0  0  0  0  0
    6.4470    4.5307    8.9492 H   0  0  0  0  0  0  0  0  0  0  0  0
    5.2829    5.5577    9.4556 H   0  0  0  0  0  0  0  0  0  0  0  0
   -0.9497    5.6319    9.6920 H   0  0  0  0  0  0  0  0  0  0  0  0
   -2.4441    4.2955    9.8044 H   0  0  0  0  0  0  0  0  0  0  0  0
  1 28  1  0  0  0  0
  1 34  1  0  0  0  0
  1 35  1  0  0  0  0
  1 36  1  0  0  0  0
  2 50  1  0  0  0  0
  2 51  1  0  0  0  0
  4 28  1  0  0  0  0
  4 37  1  0  0  0  0
  4 38  1  0  0  0  0
  4 39  1  0  0  0  0
  6  8  4  0  0  0  0
  6 10  4  0  0  0  0
  6 40  1  0  0  0  0
  8 22  4  0  0  0  0
  8 41  1  0  0  0  0
  9 15  1  0  0  0  0
 10 23  4  0  0  0  0
 10 42  1  0  0  0  0
 11 52  1  0  0  0  0
 12 16  4  0  0  0  0
 12 20  4  0  0  0  0
 12 43  1  0  0  0  0
 13 53  1  0  0  0  0
 14 17  4  0  0  0  0
 14 20  4  0  0  0  0
 14 44  1  0  0  0  0
 16 21  4  0  0  0  0
 16 45  1  0  0  0  0
 17 21  4  0  0  0  0
 17 46  1  0  0  0  0
 18 22  4  0  0  0  0
 18 23  4  0  0  0  0
 18 47  1  0  0  0  0
  5 19  4  0  0  0  0
  7 19  4  0  0  0  0
 19 48  1  0  0  0  0
 20 25  1  0  0  0  0
 11 21  1  0  0  0  0
 22 30  1  0  0  0  0
 13 23  1  0  0  0  0
 24 25  1  0  0  0  0
 24 26  4  0  0  0  0
 24 27  4  0  0  0  0
  9 25  2  0  0  0  0
  2 26  1  0  0  0  0
  5 26  4  0  0  0  0
  7 27  4  0  0  0  0
 15 27  1  0  0  0  0
 15 28  1  0  0  0  0
 28 49  1  0  0  0  0
  3 29  2  0  0  0  0
 11 29  1  0  0  0  0
 13 29  1  0  0  0  0
 30 31  1  0  0  0  0
 30 32  1  0  0  0  0
 30 33  1  0  0  0  0
M  END
$$$$
