208_A1001_2GTK
  PyMOL2.6          3D                             0

 53 56  0  0  0  0  0  0  0  0999 V2000
    0.2960   28.7680   15.4750 C   0  0  0  0  0  0  0  0  0  0  0  0
    6.4580   22.9710   16.6950 N   0  0  0  0  0  0  0  0  0  0  0  0
   -1.7210   29.0300   19.3250 O   0  5  0  0  0  0  0  0  0  0  0  0
    7.6300   26.3670   15.8900 C   0  0  0  0  0  0  0  0  0  0  0  0
    5.6220   24.3690   19.2270 N   0  0  0  0  0  0  0  0  0  0  0  0
   -2.1170   26.9220   19.9260 O   0  0  0  0  0  0  0  0  0  0  0  0
    5.2930   19.5900   14.2990 C   0  0  0  0  0  0  0  0  0  0  0  0
    6.9430   24.1820   14.9140 O   0  0  0  0  0  0  0  0  0  0  0  0
    5.5110   19.6080   12.9190 C   0  0  0  0  0  0  0  0  0  0  0  0
    0.3980   28.2430   17.8380 O   0  0  0  0  0  0  0  0  0  0  0  0
    5.6210   20.6950   15.0690 C   0  0  0  0  0  0  0  0  0  0  0  0
    6.0550   20.7330   12.3140 C   0  0  0  0  0  0  0  0  0  0  0  0
    3.2640   27.2670   19.0130 C   0  0  0  0  0  0  0  0  0  0  0  0
    4.4370   26.5740   18.7580 C   0  0  0  0  0  0  0  0  0  0  0  0
    3.9450   23.3650   20.3950 C   0  0  0  0  0  0  0  0  0  0  0  0
    5.2050   23.1970   19.9190 C   0  0  0  0  0  0  0  0  0  0  0  0
    2.3360   25.3940   20.2620 C   0  0  0  0  0  0  0  0  0  0  0  0
   -0.1200   27.8040   16.5870 C   0  0  0  0  0  0  0  0  0  0  0  0
    0.9770   27.4680   20.0680 C   0  0  0  0  0  0  0  0  0  0  0  0
    6.9290   24.5960   18.5960 C   0  0  0  0  0  0  0  0  0  0  0  0
    7.1540   24.9540   16.0390 C   0  0  0  0  0  0  0  0  0  0  0  0
    2.2210   26.6840   19.7700 C   0  0  0  0  0  0  0  0  0  0  0  0
    3.5190   24.6780   20.0120 C   0  0  0  0  0  0  0  0  0  0  0  0
    6.1750   21.8420   14.4770 C   0  0  0  0  0  0  0  0  0  0  0  0
    4.5360   25.2810   19.2860 C   0  0  0  0  0  0  0  0  0  0  0  0
    6.3860   21.8500   13.0830 C   0  0  0  0  0  0  0  0  0  0  0  0
    6.8700   24.2440   17.1430 C   0  0  0  0  0  0  0  0  0  0  0  0
    6.5170   22.9690   15.3210 C   0  0  0  0  0  0  0  0  0  0  0  0
   -0.0240   27.4050   18.9110 C   0  0  0  0  0  0  0  0  0  0  0  0
   -1.3820   27.8110   19.4020 C   0  0  0  0  0  0  0  0  0  0  0  0
    7.0720   23.2420   12.2750 Cl  0  0  0  0  0  0  0  0  0  0  0  0
   -0.1102   28.4179   14.5146 H   0  0  0  0  0  0  0  0  0  0  0  0
   -0.0962   29.7720   15.6946 H   0  0  0  0  0  0  0  0  0  0  0  0
    1.3937   28.8077   15.4161 H   0  0  0  0  0  0  0  0  0  0  0  0
    7.7518   26.6028   14.8225 H   0  0  0  0  0  0  0  0  0  0  0  0
    6.8922   27.0511   16.3345 H   0  0  0  0  0  0  0  0  0  0  0  0
    8.5955   26.4846   16.4038 H   0  0  0  0  0  0  0  0  0  0  0  0
    4.8683   18.7139   14.7664 H   0  0  0  0  0  0  0  0  0  0  0  0
    5.2558   18.7451   12.3218 H   0  0  0  0  0  0  0  0  0  0  0  0
    5.4488   20.6738   16.1350 H   0  0  0  0  0  0  0  0  0  0  0  0
    6.2223   20.7439   11.2471 H   0  0  0  0  0  0  0  0  0  0  0  0
    3.1444   28.2687   18.6273 H   0  0  0  0  0  0  0  0  0  0  0  0
    5.2372   27.0110   18.1791 H   0  0  0  0  0  0  0  0  0  0  0  0
    3.3709   22.6436   20.9574 H   0  0  0  0  0  0  0  0  0  0  0  0
    5.8025   22.3064   20.0464 H   0  0  0  0  0  0  0  0  0  0  0  0
    1.5315   24.9470   20.8271 H   0  0  0  0  0  0  0  0  0  0  0  0
   -1.2180   27.7673   16.6425 H   0  0  0  0  0  0  0  0  0  0  0  0
    0.2741   26.8016   16.3635 H   0  0  0  0  0  0  0  0  0  0  0  0
    0.5030   27.0494   20.9681 H   0  0  0  0  0  0  0  0  0  0  0  0
    1.2542   28.5188   20.2382 H   0  0  0  0  0  0  0  0  0  0  0  0
    7.6840   23.9672   19.0906 H   0  0  0  0  0  0  0  0  0  0  0  0
    7.2025   25.6563   18.7009 H   0  0  0  0  0  0  0  0  0  0  0  0
   -0.0750   26.3734   18.5325 H   0  0  0  0  0  0  0  0  0  0  0  0
  1 18  1  0  0  0  0
  1 32  1  0  0  0  0
  1 33  1  0  0  0  0
  1 34  1  0  0  0  0
  4 21  1  0  0  0  0
  4 35  1  0  0  0  0
  4 36  1  0  0  0  0
  4 37  1  0  0  0  0
  7  9  4  0  0  0  0
  7 11  4  0  0  0  0
  7 38  1  0  0  0  0
  9 12  4  0  0  0  0
  9 39  1  0  0  0  0
 11 24  4  0  0  0  0
 11 40  1  0  0  0  0
 12 26  4  0  0  0  0
 12 41  1  0  0  0  0
 13 14  4  0  0  0  0
 13 22  4  0  0  0  0
 13 42  1  0  0  0  0
 14 25  4  0  0  0  0
 14 43  1  0  0  0  0
 15 16  2  0  0  0  0
 15 23  1  0  0  0  0
 15 44  1  0  0  0  0
  5 16  1  0  0  0  0
 16 45  1  0  0  0  0
 17 22  4  0  0  0  0
 17 23  4  0  0  0  0
 17 46  1  0  0  0  0
 10 18  1  0  0  0  0
 18 47  1  0  0  0  0
 18 48  1  0  0  0  0
 19 22  1  0  0  0  0
 19 29  1  0  0  0  0
 19 49  1  0  0  0  0
 19 50  1  0  0  0  0
  5 20  1  0  0  0  0
 20 27  1  0  0  0  0
 20 51  1  0  0  0  0
 20 52  1  0  0  0  0
  8 21  1  0  0  0  0
 21 27  2  0  0  0  0
 23 25  4  0  0  0  0
 24 26  4  0  0  0  0
 24 28  1  0  0  0  0
  5 25  1  0  0  0  0
 26 31  1  0  0  0  0
  2 27  1  0  0  0  0
  2 28  2  0  0  0  0
  8 28  1  0  0  0  0
 10 29  1  0  0  0  0
 29 30  1  0  0  0  0
 29 53  1  0  0  0  0
  3 30  1  0  0  0  0
  6 30  2  0  0  0  0
M  END
$$$$
