HXA_200_1MV9
  PyMOL2.6          3D                             0

 55 54  0  0  0  0  0  0  0  0999 V2000
   61.4530   47.1060   34.2110 C   0  0  0  0  0  0  0  0  0  0  0  0
   53.9310   46.1170   30.1250 O   0  5  0  0  0  0  0  0  0  0  0  0
   62.8640   47.4980   33.7760 C   0  0  0  0  0  0  0  0  0  0  0  0
   54.5350   44.1360   30.9850 O   0  0  0  0  0  0  0  0  0  0  0  0
   57.1100   44.4800   29.8230 C   0  0  0  0  0  0  0  0  0  0  0  0
   55.8630   45.1280   29.2340 C   0  0  0  0  0  0  0  0  0  0  0  0
   65.3960   45.4470   34.9200 C   0  0  0  0  0  0  0  0  0  0  0  0
   60.0090   45.6980   30.2290 C   0  0  0  0  0  0  0  0  0  0  0  0
   65.3440   45.1020   31.6150 C   0  0  0  0  0  0  0  0  0  0  0  0
   61.1580   48.3010   28.3330 C   0  0  0  0  0  0  0  0  0  0  0  0
   63.9270   45.9790   28.1220 C   0  0  0  0  0  0  0  0  0  0  0  0
   63.8630   47.3820   34.8860 C   0  0  0  0  0  0  0  0  0  0  0  0
   57.6140   45.1940   31.0340 C   0  0  0  0  0  0  0  0  0  0  0  0
   64.1890   46.1840   35.3970 C   0  0  0  0  0  0  0  0  0  0  0  0
   58.7650   45.8920   31.0420 C   0  0  0  0  0  0  0  0  0  0  0  0
   65.0040   44.3630   33.9720 C   0  0  0  0  0  0  0  0  0  0  0  0
   59.8450   46.1690   28.8210 C   0  0  0  0  0  0  0  0  0  0  0  0
   64.4960   44.6940   32.7780 C   0  0  0  0  0  0  0  0  0  0  0  0
   59.9320   47.4490   28.4450 C   0  0  0  0  0  0  0  0  0  0  0  0
   64.6100   44.9040   30.3190 C   0  0  0  0  0  0  0  0  0  0  0  0
   62.4160   47.7360   28.9100 C   0  0  0  0  0  0  0  0  0  0  0  0
   64.8130   45.7780   29.3180 C   0  0  0  0  0  0  0  0  0  0  0  0
   63.4130   47.3860   28.0820 C   0  0  0  0  0  0  0  0  0  0  0  0
   54.7120   45.0300   30.2150 C   0  0  0  0  0  0  0  0  0  0  0  0
   60.7642   47.2098   33.3597 H   0  0  0  0  0  0  0  0  0  0  0  0
   61.4530   46.0619   34.5572 H   0  0  0  0  0  0  0  0  0  0  0  0
   61.1258   47.7639   35.0296 H   0  0  0  0  0  0  0  0  0  0  0  0
   63.1738   46.8306   32.9583 H   0  0  0  0  0  0  0  0  0  0  0  0
   62.8445   48.5432   33.4336 H   0  0  0  0  0  0  0  0  0  0  0  0
   56.8630   43.4464   30.1070 H   0  0  0  0  0  0  0  0  0  0  0  0
   57.9011   44.4914   29.0588 H   0  0  0  0  0  0  0  0  0  0  0  0
   56.0701   46.1874   29.0224 H   0  0  0  0  0  0  0  0  0  0  0  0
   55.5907   44.6104   28.3023 H   0  0  0  0  0  0  0  0  0  0  0  0
   66.0684   46.1499   34.4063 H   0  0  0  0  0  0  0  0  0  0  0  0
   65.9118   45.0020   35.7837 H   0  0  0  0  0  0  0  0  0  0  0  0
   60.8248   46.2692   30.6961 H   0  0  0  0  0  0  0  0  0  0  0  0
   60.2526   44.6254   30.2129 H   0  0  0  0  0  0  0  0  0  0  0  0
   65.6060   46.1653   31.7189 H   0  0  0  0  0  0  0  0  0  0  0  0
   66.2575   44.4893   31.6060 H   0  0  0  0  0  0  0  0  0  0  0  0
   61.3392   48.4715   27.2615 H   0  0  0  0  0  0  0  0  0  0  0  0
   60.9502   49.2418   28.8638 H   0  0  0  0  0  0  0  0  0  0  0  0
   64.5047   45.7798   27.2074 H   0  0  0  0  0  0  0  0  0  0  0  0
   63.0755   45.2854   28.1831 H   0  0  0  0  0  0  0  0  0  0  0  0
   64.3272   48.2738   35.2805 H   0  0  0  0  0  0  0  0  0  0  0  0
   57.0304   45.1484   31.9416 H   0  0  0  0  0  0  0  0  0  0  0  0
   63.5682   45.7469   36.1651 H   0  0  0  0  0  0  0  0  0  0  0  0
   58.7968   46.7160   31.7394 H   0  0  0  0  0  0  0  0  0  0  0  0
   65.1283   43.3256   34.2453 H   0  0  0  0  0  0  0  0  0  0  0  0
   59.6437   45.4299   28.0597 H   0  0  0  0  0  0  0  0  0  0  0  0
   63.4242   44.6651   32.6486 H   0  0  0  0  0  0  0  0  0  0  0  0
   58.9992   47.9296   28.1895 H   0  0  0  0  0  0  0  0  0  0  0  0
   63.9309   44.0736   30.1938 H   0  0  0  0  0  0  0  0  0  0  0  0
   62.5212   47.6112   29.9776 H   0  0  0  0  0  0  0  0  0  0  0  0
   65.6976   46.3945   29.3797 H   0  0  0  0  0  0  0  0  0  0  0  0
   63.8375   48.1064   27.3985 H   0  0  0  0  0  0  0  0  0  0  0  0
  1  3  1  0  0  0  0
  1 25  1  0  0  0  0
  1 26  1  0  0  0  0
  1 27  1  0  0  0  0
  3 12  1  0  0  0  0
  3 28  1  0  0  0  0
  3 29  1  0  0  0  0
  5  6  1  0  0  0  0
  5 13  1  0  0  0  0
  5 30  1  0  0  0  0
  5 31  1  0  0  0  0
  6 24  1  0  0  0  0
  6 32  1  0  0  0  0
  6 33  1  0  0  0  0
  7 14  1  0  0  0  0
  7 16  1  0  0  0  0
  7 34  1  0  0  0  0
  7 35  1  0  0  0  0
  8 15  1  0  0  0  0
  8 17  1  0  0  0  0
  8 36  1  0  0  0  0
  8 37  1  0  0  0  0
  9 18  1  0  0  0  0
  9 20  1  0  0  0  0
  9 38  1  0  0  0  0
  9 39  1  0  0  0  0
 10 19  1  0  0  0  0
 10 21  1  0  0  0  0
 10 40  1  0  0  0  0
 10 41  1  0  0  0  0
 11 22  1  0  0  0  0
 11 23  1  0  0  0  0
 11 42  1  0  0  0  0
 11 43  1  0  0  0  0
 12 14  2  0  0  0  0
 12 44  1  0  0  0  0
 13 15  2  0  0  0  0
 13 45  1  0  0  0  0
 14 46  1  0  0  0  0
 15 47  1  0  0  0  0
 16 18  2  0  0  0  0
 16 48  1  0  0  0  0
 17 19  2  0  0  0  0
 17 49  1  0  0  0  0
 18 50  1  0  0  0  0
 19 51  1  0  0  0  0
 20 22  2  0  0  0  0
 20 52  1  0  0  0  0
 21 23  2  0  0  0  0
 21 53  1  0  0  0  0
 22 54  1  0  0  0  0
 23 55  1  0  0  0  0
  2 24  1  0  0  0  0
  4 24  2  0  0  0  0
M  END
$$$$
