*****
  PyMOL2.6          3D                             0

 85 88  0  0  0  0  0  0  0  0999 V2000
   13.8310  -24.2130    2.5450 C   0  0  0  0  0  0  0  0  0  0  0  0
   24.6380  -24.0110    0.4590 N   0  0  0  0  0  0  0  0  0  0  0  0
   17.0440  -27.3730    8.6050 O   0  0  0  0  0  0  0  0  0  0  0  0
   14.7260  -21.7450    4.0960 S   0  0  0  0  0  0  0  0  0  0  0  0
   15.6230  -30.0750    8.5430 C   0  0  0  0  0  0  0  0  0  0  0  0
   16.7770  -21.2240   -1.9710 N   0  0  0  0  0  0  0  0  0  0  0  0
   14.4850  -20.5320    4.9220 O   0  0  0  0  0  0  0  0  0  0  0  0
   14.2790  -28.0370    8.7600 C   0  0  0  0  0  0  0  0  0  0  0  0
   17.3980  -19.2110   -1.3190 N   0  0  0  0  0  0  0  0  0  0  0  0
   14.3880  -21.4650    2.6720 O   0  0  0  0  0  0  0  0  0  0  0  0
   13.8700  -29.6580    6.8510 C   0  0  0  0  0  0  0  0  0  0  0  0
   17.4020  -26.6650    6.5400 N   0  0  0  0  0  0  0  0  0  0  0  0
   15.7560  -28.2360    6.9230 O   0  0  0  0  0  0  0  0  0  0  0  0
   17.6120  -17.7410   -1.2710 C   0  0  0  0  0  0  0  0  0  0  0  0
   18.7890  -21.0490    1.6040 N   0  0  0  0  0  0  0  0  0  0  0  0
   12.1330  -24.8800    5.8470 C   0  0  0  0  0  0  0  0  0  0  0  0
   16.3410  -22.0010    4.2810 N   0  0  0  0  0  0  0  0  0  0  0  0
   12.4980  -23.7600    6.5800 C   0  0  0  0  0  0  0  0  0  0  0  0
   12.5820  -25.0100    4.5390 C   0  0  0  0  0  0  0  0  0  0  0  0
   13.3070  -22.7860    6.0050 C   0  0  0  0  0  0  0  0  0  0  0  0
   21.9950  -21.9240   -0.0390 C   0  0  0  0  0  0  0  0  0  0  0  0
   21.7930  -23.1800    2.0090 C   0  0  0  0  0  0  0  0  0  0  0  0
   20.7670  -21.3190    0.2180 C   0  0  0  0  0  0  0  0  0  0  0  0
   20.5650  -22.5820    2.2640 C   0  0  0  0  0  0  0  0  0  0  0  0
   17.4070  -21.4150   -0.7860 C   0  0  0  0  0  0  0  0  0  0  0  0
   16.7670  -19.8960   -2.2880 C   0  0  0  0  0  0  0  0  0  0  0  0
   16.4070  -25.2970    4.9070 C   0  0  0  0  0  0  0  0  0  0  0  0
   17.9820  -24.3610    6.6500 C   0  0  0  0  0  0  0  0  0  0  0  0
   17.0520  -26.6730    5.1200 C   0  0  0  0  0  0  0  0  0  0  0  0
   18.4950  -25.7700    6.8760 C   0  0  0  0  0  0  0  0  0  0  0  0
   18.2370  -21.1160    2.9750 C   0  0  0  0  0  0  0  0  0  0  0  0
   17.1660  -22.2250    3.0520 C   0  0  0  0  0  0  0  0  0  0  0  0
   18.5240  -19.8630    0.8450 C   0  0  0  0  0  0  0  0  0  0  0  0
   16.6010  -22.8410    5.4660 C   0  0  0  0  0  0  0  0  0  0  0  0
   23.6390  -23.4400    0.6460 C   0  0  0  0  0  0  0  0  0  0  0  0
   13.3790  -24.0300    3.9620 C   0  0  0  0  0  0  0  0  0  0  0  0
   22.5110  -22.8530    0.8660 C   0  0  0  0  0  0  0  0  0  0  0  0
   20.0570  -21.6280    1.3800 C   0  0  0  0  0  0  0  0  0  0  0  0
   13.7710  -22.9140    4.6940 C   0  0  0  0  0  0  0  0  0  0  0  0
   17.7780  -20.1310   -0.4260 C   0  0  0  0  0  0  0  0  0  0  0  0
   17.3590  -24.1500    5.2770 C   0  0  0  0  0  0  0  0  0  0  0  0
   16.7930  -27.3680    7.4020 C   0  0  0  0  0  0  0  0  0  0  0  0
   14.8910  -28.9940    7.7630 C   0  0  0  0  0  0  0  0  0  0  0  0
   13.0990  -23.7550    1.8640 H   0  0  0  0  0  0  0  0  0  0  0  0
   14.8100  -23.7310    2.4080 H   0  0  0  0  0  0  0  0  0  0  0  0
   13.9160  -25.2870    2.3230 H   0  0  0  0  0  0  0  0  0  0  0  0
   16.0800  -30.7880    7.8410 H   0  0  0  0  0  0  0  0  0  0  0  0
   16.4080  -29.6140    9.1600 H   0  0  0  0  0  0  0  0  0  0  0  0
   14.9100  -30.6050    9.1920 H   0  0  0  0  0  0  0  0  0  0  0  0
   13.7410  -27.2420    8.2230 H   0  0  0  0  0  0  0  0  0  0  0  0
   13.5760  -28.5820    9.4070 H   0  0  0  0  0  0  0  0  0  0  0  0
   15.0740  -27.5910    9.3750 H   0  0  0  0  0  0  0  0  0  0  0  0
   13.3320  -28.8870    6.2800 H   0  0  0  0  0  0  0  0  0  0  0  0
   14.3860  -30.3360    6.1560 H   0  0  0  0  0  0  0  0  0  0  0  0
   13.1540  -30.2310    7.4580 H   0  0  0  0  0  0  0  0  0  0  0  0
   18.1600  -17.4790   -0.3540 H   0  0  0  0  0  0  0  0  0  0  0  0
   18.1960  -17.4270   -2.1490 H   0  0  0  0  0  0  0  0  0  0  0  0
   16.6390  -17.2290   -1.2750 H   0  0  0  0  0  0  0  0  0  0  0  0
   11.5070  -25.6420    6.2880 H   0  0  0  0  0  0  0  0  0  0  0  0
   12.1540  -23.6450    7.5970 H   0  0  0  0  0  0  0  0  0  0  0  0
   12.3080  -25.8830    3.9640 H   0  0  0  0  0  0  0  0  0  0  0  0
   13.5810  -21.9150    6.5820 H   0  0  0  0  0  0  0  0  0  0  0  0
   22.5450  -21.6750   -0.9340 H   0  0  0  0  0  0  0  0  0  0  0  0
   22.1920  -23.9040    2.7040 H   0  0  0  0  0  0  0  0  0  0  0  0
   20.3620  -20.6070   -0.4860 H   0  0  0  0  0  0  0  0  0  0  0  0
   20.0040  -22.8550    3.1450 H   0  0  0  0  0  0  0  0  0  0  0  0
   17.5770  -22.3400   -0.2550 H   0  0  0  0  0  0  0  0  0  0  0  0
   16.3240  -19.4660   -3.1740 H   0  0  0  0  0  0  0  0  0  0  0  0
   16.1330  -25.1980    3.8460 H   0  0  0  0  0  0  0  0  0  0  0  0
   15.5110  -25.2280    5.5410 H   0  0  0  0  0  0  0  0  0  0  0  0
   17.2140  -24.1510    7.4090 H   0  0  0  0  0  0  0  0  0  0  0  0
   18.8310  -23.6680    6.7500 H   0  0  0  0  0  0  0  0  0  0  0  0
   16.3540  -27.4890    4.8800 H   0  0  0  0  0  0  0  0  0  0  0  0
   17.9400  -26.8060    4.4850 H   0  0  0  0  0  0  0  0  0  0  0  0
   19.3670  -25.9700    6.2350 H   0  0  0  0  0  0  0  0  0  0  0  0
   18.7960  -25.9070    7.9250 H   0  0  0  0  0  0  0  0  0  0  0  0
   17.7800  -20.1490    3.2320 H   0  0  0  0  0  0  0  0  0  0  0  0
   19.0470  -21.3410    3.6840 H   0  0  0  0  0  0  0  0  0  0  0  0
   16.5240  -22.1860    2.1600 H   0  0  0  0  0  0  0  0  0  0  0  0
   17.6520  -23.2100    3.1030 H   0  0  0  0  0  0  0  0  0  0  0  0
   19.4860  -19.3960    0.5880 H   0  0  0  0  0  0  0  0  0  0  0  0
   17.9170  -19.1860    1.4640 H   0  0  0  0  0  0  0  0  0  0  0  0
   15.6190  -23.1050    5.8850 H   0  0  0  0  0  0  0  0  0  0  0  0
   17.1980  -22.2300    6.1590 H   0  0  0  0  0  0  0  0  0  0  0  0
   18.0960  -24.1220    4.4600 H   0  0  0  0  0  0  0  0  0  0  0  0
  1 36  1  0  0  0  0
  1 44  1  0  0  0  0
  1 45  1  0  0  0  0
  1 46  1  0  0  0  0
  5 43  1  0  0  0  0
  5 47  1  0  0  0  0
  5 48  1  0  0  0  0
  5 49  1  0  0  0  0
  4  7  2  0  0  0  0
  8 43  1  0  0  0  0
  8 50  1  0  0  0  0
  8 51  1  0  0  0  0
  8 52  1  0  0  0  0
  4 10  2  0  0  0  0
 11 43  1  0  0  0  0
 11 53  1  0  0  0  0
 11 54  1  0  0  0  0
 11 55  1  0  0  0  0
  9 14  1  0  0  0  0
 14 56  1  0  0  0  0
 14 57  1  0  0  0  0
 14 58  1  0  0  0  0
 16 18  4  0  0  0  0
 16 19  4  0  0  0  0
 16 59  1  0  0  0  0
  4 17  1  0  0  0  0
 18 20  4  0  0  0  0
 18 60  1  0  0  0  0
 19 36  4  0  0  0  0
 19 61  1  0  0  0  0
 20 39  4  0  0  0  0
 20 62  1  0  0  0  0
 21 23  4  0  0  0  0
 21 37  4  0  0  0  0
 21 63  1  0  0  0  0
 22 24  4  0  0  0  0
 22 37  4  0  0  0  0
 22 64  1  0  0  0  0
 23 38  4  0  0  0  0
 23 65  1  0  0  0  0
 24 38  4  0  0  0  0
 24 66  1  0  0  0  0
  6 25  1  0  0  0  0
 25 40  2  0  0  0  0
 25 67  1  0  0  0  0
  6 26  2  0  0  0  0
  9 26  1  0  0  0  0
 26 68  1  0  0  0  0
 27 29  1  0  0  0  0
 27 41  1  0  0  0  0
 27 69  1  0  0  0  0
 27 70  1  0  0  0  0
 28 30  1  0  0  0  0
 28 41  1  0  0  0  0
 28 71  1  0  0  0  0
 28 72  1  0  0  0  0
 12 29  1  0  0  0  0
 29 73  1  0  0  0  0
 29 74  1  0  0  0  0
 12 30  1  0  0  0  0
 30 75  1  0  0  0  0
 30 76  1  0  0  0  0
 15 31  1  0  0  0  0
 31 32  1  0  0  0  0
 31 77  1  0  0  0  0
 31 78  1  0  0  0  0
 17 32  1  0  0  0  0
 32 79  1  0  0  0  0
 32 80  1  0  0  0  0
 15 33  1  0  0  0  0
 33 40  1  0  0  0  0
 33 81  1  0  0  0  0
 33 82  1  0  0  0  0
 17 34  1  0  0  0  0
 34 41  1  0  0  0  0
 34 83  1  0  0  0  0
 34 84  1  0  0  0  0
  2 35  3  0  0  0  0
 35 37  1  0  0  0  0
 36 39  4  0  0  0  0
 15 38  1  0  0  0  0
  4 39  1  0  0  0  0
  9 40  1  0  0  0  0
 41 85  1  0  0  0  0
  3 42  2  0  0  0  0
 12 42  1  0  0  0  0
 13 42  1  0  0  0  0
 13 43  1  0  0  0  0
M  END
$$$$
