BDV_1_3L5D
  PyMOL2.6          3D                             0

 65 66  0  0  0  0  0  0  0  0999 V2000
   28.2520   10.2950   20.2960 C   0  0  0  0  0  0  0  0  0  0  0  0
   22.3880    9.3370   24.5310 N   0  3  0  0  0  0  0  0  0  0  0  0
   20.5470   13.0130   22.4570 O   0  0  0  0  0  0  0  0  0  0  0  0
   23.4340   12.0520   19.4210 C   0  0  0  0  0  0  0  0  0  0  0  0
   21.2830    9.5630   22.4480 N   0  3  0  0  0  0  0  0  0  0  0  0
   28.3810   14.2820   24.6840 O   0  0  0  0  0  0  0  0  0  0  0  0
   23.6780    9.8530   20.6550 C   0  0  0  0  0  0  0  0  0  0  0  0
   29.3240   13.7470   22.6950 N   0  0  0  0  0  0  0  0  0  0  0  0
   19.1580   10.4820   21.5830 C   0  0  0  0  0  0  0  0  0  0  0  0
   27.4880   15.0870   22.7670 N   0  0  0  0  0  0  0  0  0  0  0  0
   24.2730   15.3070   24.7810 C   0  0  0  0  0  0  0  0  0  0  0  0
   21.5530   11.3910   23.7570 N   0  0  0  0  0  0  0  0  0  0  0  0
   25.2310   13.5550   23.3320 C   0  0  0  0  0  0  0  0  0  0  0  0
   23.1860   14.4410   25.1120 C   0  0  0  0  0  0  0  0  0  0  0  0
   24.1490   12.6920   23.6630 C   0  0  0  0  0  0  0  0  0  0  0  0
   28.8260   11.4220   21.1330 C   0  0  0  0  0  0  0  0  0  0  0  0
   28.4300   12.7910   20.6080 C   0  0  0  0  0  0  0  0  0  0  0  0
   29.2580   13.9080   21.2460 C   0  0  0  0  0  0  0  0  0  0  0  0
   26.4520   15.7820   23.5370 C   0  0  0  0  0  0  0  0  0  0  0  0
   21.9650   12.2050   24.9040 C   0  0  0  0  0  0  0  0  0  0  0  0
   21.3900   10.9180   20.3920 C   0  0  0  0  0  0  0  0  0  0  0  0
   25.2970   14.8650   23.8900 C   0  0  0  0  0  0  0  0  0  0  0  0
   23.1210   13.1300   24.5530 C   0  0  0  0  0  0  0  0  0  0  0  0
   21.7630   10.0660   23.6080 C   0  0  0  0  0  0  0  0  0  0  0  0
   20.9070   11.8540   22.6750 C   0  0  0  0  0  0  0  0  0  0  0  0
   22.8940   11.1590   20.5390 C   0  0  0  0  0  0  0  0  0  0  0  0
   28.3980   14.3670   23.4560 C   0  0  0  0  0  0  0  0  0  0  0  0
   20.6810   10.6720   21.7290 C   0  0  0  0  0  0  0  0  0  0  0  0
   28.5668    9.3284   20.7163 H   0  0  0  0  0  0  0  0  0  0  0  0
   27.1538   10.3569   20.3017 H   0  0  0  0  0  0  0  0  0  0  0  0
   28.6190   10.3823   19.2627 H   0  0  0  0  0  0  0  0  0  0  0  0
   22.8426   12.9782   19.3729 H   0  0  0  0  0  0  0  0  0  0  0  0
   24.4862   12.2992   19.6253 H   0  0  0  0  0  0  0  0  0  0  0  0
   23.3618   11.5208   18.4605 H   0  0  0  0  0  0  0  0  0  0  0  0
   23.2575    9.2433   21.4683 H   0  0  0  0  0  0  0  0  0  0  0  0
   23.6084    9.2984   19.7076 H   0  0  0  0  0  0  0  0  0  0  0  0
   24.7328   10.0768   20.8724 H   0  0  0  0  0  0  0  0  0  0  0  0
   18.7127   10.3105   22.5741 H   0  0  0  0  0  0  0  0  0  0  0  0
   18.7174   11.3846   21.1344 H   0  0  0  0  0  0  0  0  0  0  0  0
   18.9571    9.6153   20.9360 H   0  0  0  0  0  0  0  0  0  0  0  0
   24.3201   16.2987   25.2060 H   0  0  0  0  0  0  0  0  0  0  0  0
   26.0033   13.2169   22.6570 H   0  0  0  0  0  0  0  0  0  0  0  0
   22.4128   14.7791   25.7860 H   0  0  0  0  0  0  0  0  0  0  0  0
   24.1047   11.6998   23.2387 H   0  0  0  0  0  0  0  0  0  0  0  0
   28.4497   11.3200   22.1616 H   0  0  0  0  0  0  0  0  0  0  0  0
   29.9232   11.3455   21.1167 H   0  0  0  0  0  0  0  0  0  0  0  0
   28.5908   12.8110   19.5200 H   0  0  0  0  0  0  0  0  0  0  0  0
   27.3685   12.9634   20.8394 H   0  0  0  0  0  0  0  0  0  0  0  0
   30.2781   13.8759   20.8358 H   0  0  0  0  0  0  0  0  0  0  0  0
   28.7905   14.8765   21.0147 H   0  0  0  0  0  0  0  0  0  0  0  0
   26.0664   16.6173   22.9341 H   0  0  0  0  0  0  0  0  0  0  0  0
   26.8994   16.1589   24.4686 H   0  0  0  0  0  0  0  0  0  0  0  0
   22.2832   11.5349   25.7162 H   0  0  0  0  0  0  0  0  0  0  0  0
   21.1099   12.8162   25.2284 H   0  0  0  0  0  0  0  0  0  0  0  0
   20.9434   11.8081   19.9248 H   0  0  0  0  0  0  0  0  0  0  0  0
   21.2444   10.0313   19.7575 H   0  0  0  0  0  0  0  0  0  0  0  0
   22.2539    9.3238   24.2547 H   0  0  0  0  0  0  0  0  0  0  0  0
   23.0409   11.6992   21.4859 H   0  0  0  0  0  0  0  0  0  0  0  0
   22.6507    9.9229   25.2976 H   0  0  0  0  0  0  0  0  0  0  0  0
   21.7761    8.6163   24.8569 H   0  0  0  0  0  0  0  0  0  0  0  0
   23.2065    8.9242   24.1315 H   0  0  0  0  0  0  0  0  0  0  0  0
   22.0233    9.1597   21.9102 H   0  0  0  0  0  0  0  0  0  0  0  0
   20.6010    8.8549   22.6309 H   0  0  0  0  0  0  0  0  0  0  0  0
   30.0400   13.1893   23.1149 H   0  0  0  0  0  0  0  0  0  0  0  0
   27.5192   15.1443   21.7691 H   0  0  0  0  0  0  0  0  0  0  0  0
  1 16  1  0  0  0  0
  1 29  1  0  0  0  0
  1 30  1  0  0  0  0
  1 31  1  0  0  0  0
  2 59  1  0  0  0  0
  2 60  1  0  0  0  0
  2 61  1  0  0  0  0
  4 26  1  0  0  0  0
  4 32  1  0  0  0  0
  4 33  1  0  0  0  0
  4 34  1  0  0  0  0
  5 62  1  0  0  0  0
  5 63  1  0  0  0  0
  7 26  1  0  0  0  0
  7 35  1  0  0  0  0
  7 36  1  0  0  0  0
  7 37  1  0  0  0  0
  8 64  1  0  0  0  0
  9 28  1  0  0  0  0
  9 38  1  0  0  0  0
  9 39  1  0  0  0  0
  9 40  1  0  0  0  0
 10 65  1  0  0  0  0
 11 14  4  0  0  0  0
 11 22  4  0  0  0  0
 11 41  1  0  0  0  0
 13 15  4  0  0  0  0
 13 22  4  0  0  0  0
 13 42  1  0  0  0  0
 14 23  4  0  0  0  0
 14 43  1  0  0  0  0
 15 23  4  0  0  0  0
 15 44  1  0  0  0  0
 16 17  1  0  0  0  0
 16 45  1  0  0  0  0
 16 46  1  0  0  0  0
 17 18  1  0  0  0  0
 17 47  1  0  0  0  0
 17 48  1  0  0  0  0
  8 18  1  0  0  0  0
 18 49  1  0  0  0  0
 18 50  1  0  0  0  0
 10 19  1  0  0  0  0
 19 22  1  0  0  0  0
 19 51  1  0  0  0  0
 19 52  1  0  0  0  0
 12 20  1  0  0  0  0
 20 23  1  0  0  0  0
 20 53  1  0  0  0  0
 20 54  1  0  0  0  0
 21 26  1  0  0  0  0
 21 28  1  0  0  0  0
 21 55  1  0  0  0  0
 21 56  1  0  0  0  0
  2 24  1  0  0  0  0
  5 24  1  0  0  0  0
 12 24  1  0  0  0  0
 24 57  1  0  0  0  0
  3 25  2  0  0  0  0
 12 25  1  0  0  0  0
 25 28  1  0  0  0  0
 26 58  1  0  0  0  0
  6 27  2  0  0  0  0
  8 27  1  0  0  0  0
 10 27  1  0  0  0  0
  5 28  1  0  0  0  0
M  END
$$$$
