ONO_501_2AYW
  PyMOL2.6          3D                             0

 70 72  0  0  0  0  0  0  0  0999 V2000
   20.9310   23.5680   22.8490 C   0  0  0  0  0  0  0  0  0  0  0  0
   29.7380   13.9670   27.6080 N   0  0  0  0  0  0  0  0  0  0  0  0
   22.6270   27.2990   25.3110 O   0  0  0  0  0  0  0  0  0  0  0  0
   23.4720   23.0910   23.0790 C   0  0  0  0  0  0  0  0  0  0  0  0
   30.9750   15.8590   27.9120 N   0  3  0  0  0  0  0  0  0  0  0  0
   21.7130   19.2040   28.6340 O   0  5  0  0  0  0  0  0  0  0  0  0
   22.5530   25.0140   21.7910 C   0  0  0  0  0  0  0  0  0  0  0  0
   23.5450   18.5860   31.9320 N   0  0  0  0  0  0  0  0  0  0  0  0
   24.2540   25.1620   26.7670 O   0  0  0  0  0  0  0  0  0  0  0  0
   23.0550   16.7140   33.7920 C   0  0  0  0  0  0  0  0  0  0  0  0
   25.1880   17.8330   29.9400 N   0  0  0  0  0  0  0  0  0  0  0  0
   23.2420   19.2010   27.0860 O   0  0  0  0  0  0  0  0  0  0  0  0
   27.3560   15.4190   28.2430 C   0  0  0  0  0  0  0  0  0  0  0  0
   22.3740   24.2560   25.5980 N   0  0  0  0  0  0  0  0  0  0  0  0
   25.7780   19.9250   29.9610 O   0  0  0  0  0  0  0  0  0  0  0  0
   28.7260   17.1920   29.0640 C   0  0  0  0  0  0  0  0  0  0  0  0
   22.2500   17.9000   33.7720 O   0  0  0  0  0  0  0  0  0  0  0  0
   26.2310   16.0710   28.7190 C   0  0  0  0  0  0  0  0  0  0  0  0
   27.6030   17.8370   29.5360 C   0  0  0  0  0  0  0  0  0  0  0  0
   23.5460   23.8400   28.9340 C   0  0  0  0  0  0  0  0  0  0  0  0
   23.5040   22.9140   29.9670 C   0  0  0  0  0  0  0  0  0  0  0  0
   22.0510   20.8740   31.7680 C   0  0  0  0  0  0  0  0  0  0  0  0
   21.7710   19.9670   32.7790 C   0  0  0  0  0  0  0  0  0  0  0  0
   23.0520   22.0910   27.3530 C   0  0  0  0  0  0  0  0  0  0  0  0
   21.8960   26.4120   24.4290 C   0  0  0  0  0  0  0  0  0  0  0  0
   28.6190   15.9530   28.4400 C   0  0  0  0  0  0  0  0  0  0  0  0
   26.3400   17.2780   29.3740 C   0  0  0  0  0  0  0  0  0  0  0  0
   23.2440   23.4640   27.6700 C   0  0  0  0  0  0  0  0  0  0  0  0
   23.1730   21.5890   29.7020 C   0  0  0  0  0  0  0  0  0  0  0  0
   23.1170   20.6570   30.8310 C   0  0  0  0  0  0  0  0  0  0  0  0
   22.5530   18.8150   32.8220 C   0  0  0  0  0  0  0  0  0  0  0  0
   22.9930   21.1680   28.3560 C   0  0  0  0  0  0  0  0  0  0  0  0
   23.7890   19.5020   30.9210 C   0  0  0  0  0  0  0  0  0  0  0  0
   22.4600   25.0380   24.3250 C   0  0  0  0  0  0  0  0  0  0  0  0
   29.8040   15.2420   27.9740 C   0  0  0  0  0  0  0  0  0  0  0  0
   23.3300   24.3610   26.5770 C   0  0  0  0  0  0  0  0  0  0  0  0
   22.6340   19.7440   28.0080 C   0  0  0  0  0  0  0  0  0  0  0  0
   24.9670   19.1300   30.1870 C   0  0  0  0  0  0  0  0  0  0  0  0
   22.3640   24.1720   23.0430 C   0  0  0  0  0  0  0  0  0  0  0  0
   20.1894   24.3803   22.8314 H   0  0  0  0  0  0  0  0  0  0  0  0
   20.8918   23.0154   21.8987 H   0  0  0  0  0  0  0  0  0  0  0  0
   20.7059   22.8841   23.6806 H   0  0  0  0  0  0  0  0  0  0  0  0
   24.4511   23.5732   23.2167 H   0  0  0  0  0  0  0  0  0  0  0  0
   23.2831   22.4002   23.9139 H   0  0  0  0  0  0  0  0  0  0  0  0
   23.4690   22.5314   22.1320 H   0  0  0  0  0  0  0  0  0  0  0  0
   23.5420   25.4948   21.8177 H   0  0  0  0  0  0  0  0  0  0  0  0
   22.4825   24.3699   20.9021 H   0  0  0  0  0  0  0  0  0  0  0  0
   21.7710   25.7864   21.7473 H   0  0  0  0  0  0  0  0  0  0  0  0
   22.7141   16.0525   34.6020 H   0  0  0  0  0  0  0  0  0  0  0  0
   22.9619   16.1916   32.8285 H   0  0  0  0  0  0  0  0  0  0  0  0
   24.1069   16.9879   33.9606 H   0  0  0  0  0  0  0  0  0  0  0  0
   27.2477   14.4844   27.7126 H   0  0  0  0  0  0  0  0  0  0  0  0
   29.6964   17.6519   29.1794 H   0  0  0  0  0  0  0  0  0  0  0  0
   25.2566   15.6281   28.5751 H   0  0  0  0  0  0  0  0  0  0  0  0
   27.7052   18.7879   30.0377 H   0  0  0  0  0  0  0  0  0  0  0  0
   23.8206   24.8640   29.1399 H   0  0  0  0  0  0  0  0  0  0  0  0
   23.7285   23.2223   30.9774 H   0  0  0  0  0  0  0  0  0  0  0  0
   21.4509   21.7679   31.6832 H   0  0  0  0  0  0  0  0  0  0  0  0
   20.9850   20.1451   33.4979 H   0  0  0  0  0  0  0  0  0  0  0  0
   22.9534   21.7805   26.3233 H   0  0  0  0  0  0  0  0  0  0  0  0
   21.9050   26.8561   23.4227 H   0  0  0  0  0  0  0  0  0  0  0  0
   20.8694   26.3257   24.8145 H   0  0  0  0  0  0  0  0  0  0  0  0
   23.4919   25.3661   24.1314 H   0  0  0  0  0  0  0  0  0  0  0  0
   30.5611   13.4936   27.2942 H   0  0  0  0  0  0  0  0  0  0  0  0
   28.8652   13.4804   27.6462 H   0  0  0  0  0  0  0  0  0  0  0  0
   31.7844   15.3648   27.5948 H   0  0  0  0  0  0  0  0  0  0  0  0
   31.0493   16.8189   28.1824 H   0  0  0  0  0  0  0  0  0  0  0  0
   24.4559   17.1973   30.1848 H   0  0  0  0  0  0  0  0  0  0  0  0
   21.5989   23.6402   25.7391 H   0  0  0  0  0  0  0  0  0  0  0  0
   22.2070   28.1510   25.3232 H   0  0  0  0  0  0  0  0  0  0  0  0
  1 39  1  0  0  0  0
  1 40  1  0  0  0  0
  1 41  1  0  0  0  0
  1 42  1  0  0  0  0
  2 64  1  0  0  0  0
  2 65  1  0  0  0  0
  3 70  1  0  0  0  0
  4 39  1  0  0  0  0
  4 43  1  0  0  0  0
  4 44  1  0  0  0  0
  4 45  1  0  0  0  0
  5 66  1  0  0  0  0
  5 67  1  0  0  0  0
  7 39  1  0  0  0  0
  7 46  1  0  0  0  0
  7 47  1  0  0  0  0
  7 48  1  0  0  0  0
 10 17  1  0  0  0  0
 10 49  1  0  0  0  0
 10 50  1  0  0  0  0
 10 51  1  0  0  0  0
 11 68  1  0  0  0  0
 13 18  4  0  0  0  0
 13 26  4  0  0  0  0
 13 52  1  0  0  0  0
 14 69  1  0  0  0  0
 16 19  4  0  0  0  0
 16 26  4  0  0  0  0
 16 53  1  0  0  0  0
 18 27  4  0  0  0  0
 18 54  1  0  0  0  0
 19 27  4  0  0  0  0
 19 55  1  0  0  0  0
 20 21  4  0  0  0  0
 20 28  4  0  0  0  0
 20 56  1  0  0  0  0
 21 29  4  0  0  0  0
 21 57  1  0  0  0  0
 22 23  4  0  0  0  0
 22 30  4  0  0  0  0
 22 58  1  0  0  0  0
 23 31  4  0  0  0  0
 23 59  1  0  0  0  0
 24 28  4  0  0  0  0
 24 32  4  0  0  0  0
 24 60  1  0  0  0  0
  3 25  1  0  0  0  0
 25 34  1  0  0  0  0
 25 61  1  0  0  0  0
 25 62  1  0  0  0  0
 26 35  1  0  0  0  0
 11 27  1  0  0  0  0
 28 36  1  0  0  0  0
 29 30  1  0  0  0  0
 29 32  4  0  0  0  0
 30 33  4  0  0  0  0
  8 31  4  0  0  0  0
 17 31  1  0  0  0  0
 32 37  1  0  0  0  0
  8 33  4  0  0  0  0
 33 38  1  0  0  0  0
 14 34  1  0  0  0  0
 34 39  1  0  0  0  0
 34 63  1  0  0  0  0
  2 35  1  0  0  0  0
  5 35  2  0  0  0  0
  9 36  2  0  0  0  0
 14 36  1  0  0  0  0
  6 37  1  0  0  0  0
 12 37  2  0  0  0  0
 11 38  1  0  0  0  0
 15 38  2  0  0  0  0
M  END
$$$$
