D2B_187_3NXO
  PyMOL2.6          3D                             0

 46 48  0  0  0  0  0  0  0  0999 V2000
   15.2780    5.5660   -4.4420 C   0  0  0  0  0  0  0  0  0  0  0  0
   18.4640    7.8490    0.4940 N   0  0  0  0  0  0  0  0  0  0  0  0
   15.2270    4.9440    2.3660 O   0  0  0  0  0  0  0  0  0  0  0  0
   15.7100    7.9530   -3.5200 C   0  0  0  0  0  0  0  0  0  0  0  0
   18.3820    7.1350    5.0000 N   0  0  0  0  0  0  0  0  0  0  0  0
   14.4180    3.4600   -2.0810 O   0  0  0  0  0  0  0  0  0  0  0  0
   14.2450    2.1620   -2.8100 C   0  0  0  0  0  0  0  0  0  0  0  0
   18.3990    7.4850    2.7330 N   0  0  0  0  0  0  0  0  0  0  0  0
   11.1680    6.1160   -1.6290 C   0  0  0  0  0  0  0  0  0  0  0  0
   16.8680    5.9390    3.7380 N   0  0  0  0  0  0  0  0  0  0  0  0
   10.9460    4.7340   -1.6950 C   0  0  0  0  0  0  0  0  0  0  0  0
   12.4810    6.5950   -1.6690 C   0  0  0  0  0  0  0  0  0  0  0  0
   12.0100    3.8410   -1.8470 C   0  0  0  0  0  0  0  0  0  0  0  0
   14.9380    5.0850    0.9690 C   0  0  0  0  0  0  0  0  0  0  0  0
   15.9300    6.2520   -0.9910 C   0  0  0  0  0  0  0  0  0  0  0  0
   13.5610    5.7090   -1.7710 C   0  0  0  0  0  0  0  0  0  0  0  0
   13.3400    4.3240   -1.9300 C   0  0  0  0  0  0  0  0  0  0  0  0
   15.8310    5.9140    0.3830 C   0  0  0  0  0  0  0  0  0  0  0  0
   16.7780    6.3020    1.3740 C   0  0  0  0  0  0  0  0  0  0  0  0
   17.8910    7.1780    1.5080 C   0  0  0  0  0  0  0  0  0  0  0  0
   16.2830    5.7940    2.5590 C   0  0  0  0  0  0  0  0  0  0  0  0
   17.8910    6.8630    3.7910 C   0  0  0  0  0  0  0  0  0  0  0  0
   14.9520    6.6890   -3.3980 C   0  0  0  0  0  0  0  0  0  0  0  0
   14.8550    6.2120   -1.9160 C   0  0  0  0  0  0  0  0  0  0  0  0
   14.6501    4.6852   -4.2420 H   0  0  0  0  0  0  0  0  0  0  0  0
   15.0742    5.9386   -5.4567 H   0  0  0  0  0  0  0  0  0  0  0  0
   16.3387    5.2862   -4.3601 H   0  0  0  0  0  0  0  0  0  0  0  0
   15.3883    8.6515   -2.7335 H   0  0  0  0  0  0  0  0  0  0  0  0
   16.7851    7.7477   -3.4104 H   0  0  0  0  0  0  0  0  0  0  0  0
   15.5207    8.4001   -4.5070 H   0  0  0  0  0  0  0  0  0  0  0  0
   15.2019    1.6196   -2.8263 H   0  0  0  0  0  0  0  0  0  0  0  0
   13.4867    1.5520   -2.2974 H   0  0  0  0  0  0  0  0  0  0  0  0
   13.9192    2.3616   -3.8415 H   0  0  0  0  0  0  0  0  0  0  0  0
   10.3371    6.8012   -1.5484 H   0  0  0  0  0  0  0  0  0  0  0  0
    9.9376    4.3534   -1.6274 H   0  0  0  0  0  0  0  0  0  0  0  0
   12.6642    7.6583   -1.6208 H   0  0  0  0  0  0  0  0  0  0  0  0
   11.8184    2.7795   -1.9014 H   0  0  0  0  0  0  0  0  0  0  0  0
   14.1217    4.5976    0.4566 H   0  0  0  0  0  0  0  0  0  0  0  0
   16.2616    7.3008   -0.9958 H   0  0  0  0  0  0  0  0  0  0  0  0
   16.6721    5.5490   -1.3972 H   0  0  0  0  0  0  0  0  0  0  0  0
   13.9300    6.9490   -3.7109 H   0  0  0  0  0  0  0  0  0  0  0  0
   15.3826    6.3418   -0.9595 H   0  0  0  0  0  0  0  0  0  0  0  0
   19.1706    8.4582    0.8539 H   0  0  0  0  0  0  0  0  0  0  0  0
   18.8775    7.1993   -0.1439 H   0  0  0  0  0  0  0  0  0  0  0  0
   19.1106    7.8152    4.9191 H   0  0  0  0  0  0  0  0  0  0  0  0
   17.6531    7.4951    5.5823 H   0  0  0  0  0  0  0  0  0  0  0  0
  1 23  1  0  0  0  0
  1 25  1  0  0  0  0
  1 26  1  0  0  0  0
  1 27  1  0  0  0  0
  2 43  1  0  0  0  0
  2 44  1  0  0  0  0
  4 23  1  0  0  0  0
  4 28  1  0  0  0  0
  4 29  1  0  0  0  0
  4 30  1  0  0  0  0
  5 45  1  0  0  0  0
  5 46  1  0  0  0  0
  6  7  1  0  0  0  0
  7 31  1  0  0  0  0
  7 32  1  0  0  0  0
  7 33  1  0  0  0  0
  9 11  4  0  0  0  0
  9 12  4  0  0  0  0
  9 34  1  0  0  0  0
 11 13  4  0  0  0  0
 11 35  1  0  0  0  0
 12 16  4  0  0  0  0
 12 36  1  0  0  0  0
 13 17  4  0  0  0  0
 13 37  1  0  0  0  0
  3 14  1  0  0  0  0
 14 18  2  0  0  0  0
 14 38  1  0  0  0  0
 15 18  1  0  0  0  0
 15 24  1  0  0  0  0
 15 39  1  0  0  0  0
 15 40  1  0  0  0  0
 16 17  4  0  0  0  0
 16 24  1  0  0  0  0
  6 17  1  0  0  0  0
 18 19  1  0  0  0  0
 19 20  4  0  0  0  0
 19 21  4  0  0  0  0
  2 20  1  0  0  0  0
  8 20  4  0  0  0  0
  3 21  1  0  0  0  0
 10 21  4  0  0  0  0
  5 22  1  0  0  0  0
  8 22  4  0  0  0  0
 10 22  4  0  0  0  0
 23 24  1  0  0  0  0
 23 41  1  0  0  0  0
 24 42  1  0  0  0  0
M  END
$$$$
