PU2_A1224_1UYG
  PyMOL2.6          3D                             0

 36 38  0  0  0  0  0  0  0  0999 V2000
    5.0310   16.0220   25.7110 C   0  0  0  0  0  0  0  0  0  0  0  0
   -1.9680   11.4750   24.1540 N   0  0  0  0  0  0  0  0  0  0  0  0
    4.2350   14.9180   25.2610 O   0  0  0  0  0  0  0  0  0  0  0  0
    7.6810   10.0890   22.8450 C   0  0  0  0  0  0  0  0  0  0  0  0
    1.0320   10.9440   23.7520 N   0  0  0  0  0  0  0  0  0  0  0  0
    6.2690   10.3840   22.8050 O   0  0  0  0  0  0  0  0  0  0  0  0
    6.1770   13.6970   24.3390 C   0  0  0  0  0  0  0  0  0  0  0  0
    2.2600    9.9580   25.3190 N   0  0  0  0  0  0  0  0  0  0  0  0
    6.6830   12.5560   23.7270 C   0  0  0  0  0  0  0  0  0  0  0  0
   -1.5560   10.4980   26.2430 N   0  0  0  0  0  0  0  0  0  0  0  0
    3.9210   12.7510   24.2870 C   0  0  0  0  0  0  0  0  0  0  0  0
    0.5710    9.6940   26.9140 N   0  0  0  0  0  0  0  0  0  0  0  0
    3.5150   10.5050   23.2700 C   0  0  0  0  0  0  0  0  0  0  0  0
    4.8010   13.7840   24.6080 C   0  0  0  0  0  0  0  0  0  0  0  0
    5.7960   11.5440   23.4120 C   0  0  0  0  0  0  0  0  0  0  0  0
    4.4370   11.6390   23.6640 C   0  0  0  0  0  0  0  0  0  0  0  0
    2.2550   10.4610   24.0760 C   0  0  0  0  0  0  0  0  0  0  0  0
    0.2840   10.6970   24.8250 C   0  0  0  0  0  0  0  0  0  0  0  0
   -1.0660   10.8650   25.0730 C   0  0  0  0  0  0  0  0  0  0  0  0
    1.0480   10.0930   25.7560 C   0  0  0  0  0  0  0  0  0  0  0  0
   -0.7110    9.9290   27.0940 C   0  0  0  0  0  0  0  0  0  0  0  0
   -1.3040    9.4820   28.5200 F   0  0  0  0  0  0  0  0  0  0  0  0
    4.3819   16.7748   26.1822 H   0  0  0  0  0  0  0  0  0  0  0  0
    5.7707   15.6661   26.4432 H   0  0  0  0  0  0  0  0  0  0  0  0
    5.5515   16.4724   24.8529 H   0  0  0  0  0  0  0  0  0  0  0  0
    7.8732    9.1416   22.3201 H   0  0  0  0  0  0  0  0  0  0  0  0
    8.2389   10.8999   22.3538 H   0  0  0  0  0  0  0  0  0  0  0  0
    8.0075   10.0008   23.8917 H   0  0  0  0  0  0  0  0  0  0  0  0
    6.8363   14.5098   24.6054 H   0  0  0  0  0  0  0  0  0  0  0  0
    7.7358   12.4633   23.5047 H   0  0  0  0  0  0  0  0  0  0  0  0
    2.8688   12.8220   24.5200 H   0  0  0  0  0  0  0  0  0  0  0  0
    3.2425   10.6347   22.2122 H   0  0  0  0  0  0  0  0  0  0  0  0
    4.0523    9.5569   23.4193 H   0  0  0  0  0  0  0  0  0  0  0  0
   -2.8776   11.5301   24.5658 H   0  0  0  0  0  0  0  0  0  0  0  0
   -1.6462   12.3955   23.9326 H   0  0  0  0  0  0  0  0  0  0  0  0
    0.7537   11.3863   22.8994 H   0  0  0  0  0  0  0  0  0  0  0  0
  1  3  1  0  0  0  0
  1 23  1  0  0  0  0
  1 24  1  0  0  0  0
  1 25  1  0  0  0  0
  2 34  1  0  0  0  0
  2 35  1  0  0  0  0
  4  6  1  0  0  0  0
  4 26  1  0  0  0  0
  4 27  1  0  0  0  0
  4 28  1  0  0  0  0
  5 36  1  0  0  0  0
  7  9  4  0  0  0  0
  7 14  4  0  0  0  0
  7 29  1  0  0  0  0
  9 15  4  0  0  0  0
  9 30  1  0  0  0  0
 11 14  4  0  0  0  0
 11 16  4  0  0  0  0
 11 31  1  0  0  0  0
 13 16  1  0  0  0  0
 13 17  1  0  0  0  0
 13 32  1  0  0  0  0
 13 33  1  0  0  0  0
  3 14  1  0  0  0  0
  6 15  1  0  0  0  0
 15 16  4  0  0  0  0
  5 17  1  0  0  0  0
  8 17  2  0  0  0  0
  5 18  1  0  0  0  0
 18 19  4  0  0  0  0
 18 20  4  0  0  0  0
  2 19  1  0  0  0  0
 10 19  4  0  0  0  0
  8 20  1  0  0  0  0
 12 20  4  0  0  0  0
 10 21  4  0  0  0  0
 12 21  4  0  0  0  0
 21 22  1  0  0  0  0
M  END
$$$$
